geometry optimzed in LAMMPS
_audit_creation_date              2020-12-01 
_audit_creation_method            'lammps2cif' 
_symmetry_space_group_name_H-M    'P1' 
_symmetry_Int_Tables_number       1 
_symmetry_cell_setting            triclinic 
loop_ 
_symmetry_equiv_pos_as_xyz 
  x,y,z 
_cell_length_a                    45.99970482 
_cell_length_b                    45.934561240006644 
_cell_length_c                    45.73373436145817 
_cell_angle_alpha                 90.0440613570124 
_cell_angle_beta                  89.94748606488605 
_cell_angle_gamma                 89.96612137288724 
loop_ 
_atom_site_label 
_atom_site_type_symbol 
_atom_site_fract_x 
_atom_site_fract_y 
_atom_site_fract_z 
_atom_site_charge 
C1          C  0.39241018  0.61117534  0.60700024    -0.02700
N2          N  0.42228511  0.56027964  0.55376312    -0.06400
N3          N  0.40147492  0.56746780  0.57255479    -0.58500
N4          N  0.44248714  0.58080395  0.48657130    -0.06000
N5          N  0.43463843  0.60300134  0.46969402    -0.60600
N6          N  0.42189760  0.56073358  0.48644552    -0.05600
N7          N  0.40015308  0.56906936  0.46927825    -0.58500
N8          N  0.44305738  0.58009721  0.55404808    -0.05300
N9          N  0.43658808  0.60079936  0.57329881    -0.61000
C10         C  0.41063188  0.59264187  0.58511369     0.95800
C11         C  0.40846567  0.59525083  0.45821421     0.95600
N12         N  0.53419311  0.55746666  0.48657608    -0.06500
N13         N  0.55538151  0.56341048  0.46781231    -0.59100
N14         N  0.51418911  0.57845557  0.55339272    -0.04700
N15         N  0.52217771  0.59955480  0.57149465    -0.60300
N16         N  0.53351129  0.55720127  0.55391398    -0.06600
N17         N  0.55460801  0.56357888  0.57259245    -0.59300
N18         N  0.51470918  0.57862595  0.48641374    -0.04300
N19         N  0.52285797  0.59929582  0.46778015    -0.60400
Mn20       Mn  0.47861494  0.57981324  0.51998720     1.18400
C21         C  0.54826708  0.58960434  0.45592341     0.97900
C22         C  0.54729281  0.59001876  0.58380261     0.98600
N23         N  0.42033394  0.48933398  0.48627770    -0.06600
N24         N  0.39863640  0.48259311  0.46845526    -0.62900
N25         N  0.44103141  0.46831793  0.55259099    -0.05400
N26         N  0.43484247  0.44765057  0.57174146    -0.63600
N27         N  0.42140228  0.48921997  0.55377139    -0.06100
N28         N  0.40166656  0.48295990  0.57404234    -0.63200
N29         N  0.44018053  0.46856390  0.48572647    -0.05000
N30         N  0.43200010  0.44743764  0.46770327    -0.63900
Mn31       Mn  0.42121250  0.52488859  0.52001745     1.10700
C32         C  0.40603078  0.45638121  0.45676129     0.99100
C33         C  0.41041112  0.45696988  0.58540871     0.99200
N34         N  0.53141990  0.48570574  0.55368016    -0.06100
N35         N  0.55134523  0.47755393  0.57300713    -0.61500
N36         N  0.51196425  0.46700359  0.48558620    -0.05400
N37         N  0.51895995  0.44600641  0.46692177    -0.58200
N38         N  0.53298294  0.48652775  0.48651326    -0.06700
N39         N  0.55445161  0.47893186  0.46864098    -0.61100
N40         N  0.51026861  0.46635309  0.55301263    -0.05700
N41         N  0.51526097  0.44523371  0.57209724    -0.58200
Mn42       Mn  0.53329876  0.52175331  0.52025114     1.20200
Mn43       Mn  0.47586449  0.46739341  0.51890583     1.10100
Cl44       Cl  0.47724618  0.52352315  0.51959551    -0.86200
C45         C  0.54091865  0.45238575  0.58477667     0.96100
C46         C  0.54555373  0.45360275  0.45622508     0.95900
C47         C  0.55751505  0.43254884  0.60652101    -0.02700
C48         C  0.38748449  0.43952410  0.43401144    -0.02700
C49         C  0.56728708  0.60589212  0.43279406    -0.02700
C50         C  0.38739861  0.61676323  0.44283794    -0.02700
C51         C  0.56302339  0.43559222  0.43334646    -0.02700
C52         C  0.39329148  0.43876168  0.60808496    -0.02700
C53         C  0.56635533  0.60769829  0.60546830    -0.02700
C54         C  0.26683065  0.27821564  0.00601045     0.02000
C55         C  0.26262045  0.27541829  0.03654744     0.02000
C56         C  0.24279965  0.29366472  0.05088235    -0.18500
C57         C  0.22692379  0.31439477  0.03503548     0.02000
C58         C  0.23108001  0.31730636  0.00449662     0.02000
C59         C  0.25102640  0.29904685  0.99013791    -0.18500
H60         H  0.25376620  0.30060534  0.96665499     0.04000
H61         H  0.23907094  0.29113545  0.07414514     0.04000
C62         C  0.21135275  0.03240146  0.29294525     0.02000
C63         C  0.21317426  0.00184857  0.29652648     0.02000
C64         C  0.23298769  0.98574833  0.27970415    -0.18500
C65         C  0.25086710  0.99991666  0.25934409     0.02000
C66         C  0.24945732  0.03058944  0.25630508     0.02000
C67         C  0.22938666  0.04659514  0.27280276    -0.18500
H68         H  0.22808883  0.07001862  0.27028783     0.04000
H69         H  0.23427578  0.96232981  0.28222297     0.04000
C70         C  0.97107982  0.25012739  0.28301534     0.02000
C71         C  0.00185671  0.25016035  0.28198961     0.02000
C72         C  0.01630559  0.26903369  0.26287265    -0.18500
C73         C  0.00032324  0.28825481  0.24535967     0.02000
C74         C  0.96961135  0.28885324  0.24702769     0.02000
C75         C  0.95513161  0.26955947  0.26568809    -0.18500
H76         H  0.93163659  0.27021805  0.26733745     0.04000
H77         H  0.03984985  0.26914615  0.26200934     0.04000
C78         C  0.48274071  0.30057682  0.28382677     0.02000
C79         C  0.45313037  0.30670400  0.27811015     0.02000
C80         C  0.43795997  0.29065655  0.25693844    -0.18500
C81         C  0.45229583  0.26904708  0.24072109     0.02000
C82         C  0.48212047  0.26345166  0.24581806     0.02000
C83         C  0.49717373  0.27919237  0.26736177    -0.18500
H84         H  0.51993421  0.27467058  0.27142667     0.04000
H85         H  0.41507543  0.29485138  0.25322285     0.04000
C86         C  0.26147353  0.27664615  0.50427386     0.02000
C87         C  0.25723806  0.28232170  0.53443377     0.02000
C88         C  0.23634386  0.26663143  0.55031181    -0.18500
C89         C  0.21852591  0.24635009  0.53611880     0.02000
C90         C  0.22109564  0.24234541  0.50556999     0.02000
C91         C  0.24278802  0.25715591  0.48988137    -0.18500
H92         H  0.24518731  0.25343135  0.46660273     0.04000
H93         H  0.23398209  0.27019274  0.57362284     0.04000
C94         C  0.23349534  0.51313698  0.30260345     0.02000
C95         C  0.23693429  0.54344507  0.29823883     0.02000
C96         C  0.22048513  0.55771063  0.27663808    -0.18500
C97         C  0.20072405  0.54197920  0.25930341     0.02000
C98         C  0.19781437  0.51155547  0.26333725     0.02000
C99         C  0.21400779  0.49735545  0.28508970    -0.18500
H100        H  0.21169355  0.47408184  0.28815420     0.04000
H101        H  0.22289509  0.58095801  0.27348341     0.04000
C102        C  0.23670201  0.80228580  0.03937273     0.02000
C103        C  0.24554580  0.79347445  0.01104095     0.02000
C104        C  0.22997886  0.77155639  0.99641811    -0.18500
C105        C  0.20718268  0.75702767  0.01062828     0.02000
C106        C  0.20097165  0.76341558  0.04024415     0.02000
C107        C  0.21512419  0.78654190  0.05417950    -0.18500
H108        H  0.20948256  0.79216800  0.07649673     0.04000
H109        H  0.23569887  0.76570483  0.97418532     0.04000
C110        C  0.75010413  0.28336697  0.01042789     0.02000
C111        C  0.75004004  0.28155992  0.04130792     0.02000
C112        C  0.73112966  0.26221235  0.05543282    -0.18500
C113        C  0.71253891  0.24441007  0.03894193     0.02000
C114        C  0.71391828  0.24489471  0.00801301     0.02000
C115        C  0.73219771  0.26491607  0.99394002    -0.18500
H116        H  0.73244298  0.26617680  0.97028023     0.04000
H117        H  0.73059984  0.26129147  0.07910444     0.04000
C118        C  0.98960764  0.30754887  0.77852251     0.02000
C119        C  0.95882855  0.30720113  0.77812067     0.02000
C120        C  0.94407559  0.29082171  0.75686480    -0.18500
C121        C  0.95972455  0.27486842  0.73589052     0.02000
C122        C  0.99050119  0.27576639  0.73586640     0.02000
C123        C  0.00522776  0.29207699  0.75722674    -0.18500
H124        H  0.02877548  0.29184202  0.75791805     0.04000
H125        H  0.92054762  0.28974397  0.75723346     0.04000
C126        C  0.71109254  0.50505738  0.29095099     0.02000
C127        C  0.72043466  0.53301174  0.29993624     0.02000
C128        C  0.74395359  0.54637919  0.28565516    -0.18500
C129        C  0.75792650  0.53231090  0.26217427     0.02000
C130        C  0.74739139  0.50509223  0.25225308     0.02000
C131        C  0.72449435  0.49134666  0.26710575    -0.18500
H132        H  0.71685868  0.47022156  0.25986629     0.04000
H133        H  0.75109457  0.56779558  0.29250670     0.04000
C134        C  0.25470183  0.54430235  0.76098353     0.02000
C135        C  0.25475489  0.51354018  0.75928013     0.02000
C136        C  0.23611101  0.49726550  0.77716685    -0.18500
C137        C  0.21697285  0.51141059  0.79635670     0.02000
C138        C  0.21596859  0.54220484  0.79721022     0.02000
C139        C  0.23517397  0.55851883  0.77982512    -0.18500
H140        H  0.23446317  0.58208772  0.78045095     0.04000
H141        H  0.23592740  0.47372610  0.77557691     0.04000
C142        C  0.88533083  0.60809453  0.93534135    -0.02700
N143        N  0.03067035  0.56082946  0.98759620    -0.06400
N144        N  0.05200468  0.56777263  0.96948291    -0.58500
N145        N  0.01007692  0.58157233  0.05427987    -0.06000
N146        N  0.01642810  0.60252684  0.07319236    -0.60600
N147        N  0.03042477  0.56132912  0.05495344    -0.05600
N148        N  0.05060358  0.56821832  0.07454347    -0.58500
N149        N  0.00995897  0.58070662  0.98665604    -0.05300
N150        N  0.01711069  0.60133343  0.96757884    -0.61000
C151        C  0.04337642  0.59287718  0.95661956     0.95800
C152        C  0.04158650  0.59394818  0.08620486     0.95600
N153        N  0.91914165  0.55969841  0.05536529    -0.06500
N154        N  0.89827907  0.56692612  0.07417059    -0.59100
N155        N  0.93818808  0.57936709  0.98726317    -0.04700
N156        N  0.93039695  0.59973190  0.96823593    -0.60300
N157        N  0.91851610  0.55845570  0.98760292    -0.06600
N158        N  0.89752125  0.56422264  0.96853065    -0.59300
N159        N  0.93937933  0.58008660  0.05500148    -0.04300
N160        N  0.93266138  0.60105762  0.07379302    -0.60400
Mn161      Mn  0.97435426  0.58086857  0.02065340     1.18400
C162        C  0.90711064  0.59260640  0.08609210     0.97900
C163        C  0.90519146  0.58997921  0.95610012     0.98600
N164        N  0.03199762  0.49091811  0.05478960    -0.06600
N165        N  0.05311536  0.48477790  0.07347709    -0.62900
N166        N  0.01219937  0.46992714  0.98742696    -0.05400
N167        N  0.01917318  0.44925873  0.96844701    -0.63600
N168        N  0.03244723  0.49025737  0.98757284    -0.06100
N169        N  0.05345927  0.48346687  0.96874539    -0.63200
N170        N  0.01214877  0.47021135  0.05505289    -0.05000
N171        N  0.01953809  0.44981824  0.07419089    -0.63900
Mn172      Mn  0.03160094  0.52587199  0.02124678     1.10700
C173        C  0.04509850  0.45920811  0.08586181     0.99100
C174        C  0.04494874  0.45780110  0.95659562     0.99200
N175        N  0.91985439  0.48795727  0.98854112    -0.06100
N176        N  0.89840779  0.48008291  0.97088734    -0.61500
N177        N  0.94133912  0.46827406  0.05484447    -0.05400
N178        N  0.93486999  0.44647936  0.07260126    -0.58200
N179        N  0.92041879  0.48793767  0.05544701    -0.06700
N180        N  0.89951344  0.47945417  0.07363171    -0.61100
N181        N  0.94089646  0.46841467  0.98774689    -0.05700
N182        N  0.93394716  0.44718690  0.96932074    -0.58200
Mn183      Mn  0.91917591  0.52360770  0.02188249     1.20200
Mn184      Mn  0.97669441  0.46893775  0.02119915     1.10100
Cl185      Cl  0.97541682  0.52482549  0.02122348    -0.86200
C186        C  0.90745017  0.45478950  0.95849695     0.96100
C187        C  0.90895183  0.45367841  0.08483219     0.95900
C188        C  0.89177457  0.43292624  0.10543894    -0.02700
C189        C  0.06202296  0.43950357  0.93354970    -0.02700
C190        C  0.06284913  0.61109558  0.93582378    -0.02700
C191        C  0.88836358  0.43520131  0.93859831    -0.02700
C192        C  0.88796037  0.61268284  0.10547387    -0.02700
C193        C  0.70471685  0.52710439  0.75206910     0.02000
C194        C  0.70277134  0.49649361  0.75493106     0.02000
C195        C  0.72093406  0.48185797  0.77464494    -0.18500
C196        C  0.74032566  0.49765854  0.79218507     0.02000
C197        C  0.74100901  0.52842221  0.79072140     0.02000
C198        C  0.72346739  0.54298224  0.77032386    -0.18500
H199        H  0.72444400  0.56648477  0.76861435     0.04000
H200        H  0.72012742  0.45833350  0.77619161     0.04000
C201        C  0.05938086  0.61275840  0.10814365    -0.02700
C202        C  0.06431171  0.44147399  0.10713509    -0.02700
C203        C  0.22702568  0.04920290  0.80960878     0.02000
C204        C  0.23284207  0.01934010  0.80468238     0.02000
C205        C  0.21869482  0.00466962  0.78190463    -0.18500
C206        C  0.19821355  0.01935454  0.76468673     0.02000
C207        C  0.19105169  0.04871272  0.77094375     0.02000
C208        C  0.20589212  0.06365029  0.79303428    -0.18500
H209        H  0.20125251  0.08643163  0.79709589     0.04000
H210        H  0.22362851  0.98200289  0.77756798     0.04000
C211        C  0.46180513  0.74070887  0.27555220     0.02000
C212        C  0.49244850  0.74226313  0.27810725     0.02000
C213        C  0.50798787  0.76322531  0.26216267    -0.18500
C214        C  0.49329405  0.78241394  0.24343588     0.02000
C215        C  0.46278731  0.78028125  0.24010954     0.02000
C216        C  0.44718696  0.75966201  0.25643074    -0.18500
H217        H  0.42373064  0.75861064  0.25454979     0.04000
H218        H  0.53134850  0.76490554  0.26467675     0.04000
C219        C  0.48553116  0.27652796  0.73954946     0.02000
C220        C  0.45481415  0.27841850  0.73935247     0.02000
C221        C  0.43821558  0.25872766  0.75585390    -0.18500
C222        C  0.45200485  0.23802880  0.77370712     0.02000
C223        C  0.48268068  0.23848798  0.77650242     0.02000
C224        C  0.49935744  0.25698953  0.75864715    -0.18500
H225        H  0.52285186  0.25684360  0.76027942     0.04000
H226        H  0.41469754  0.25991318  0.75529545     0.04000
C227        C  0.55607064  0.11070354  0.93322102    -0.02700
N228        N  0.51163923  0.96773424  0.98701597    -0.06400
N229        N  0.51923520  0.94733703  0.96787132    -0.58500
N230        N  0.53043635  0.98847460  0.05514754    -0.06000
N231        N  0.55060407  0.98253773  0.07503320    -0.60600
N232        N  0.51085146  0.96752456  0.05442578    -0.05600
N233        N  0.51773901  0.94696841  0.07358442    -0.58500
N234        N  0.53134811  0.98858491  0.98750789    -0.05300
N235        N  0.55237783  0.98267698  0.96861181    -0.61000
C236        C  0.54472917  0.95687703  0.95622428     0.95800
C237        C  0.54246129  0.95657549  0.08673330     0.95600
N238        N  0.50789181  0.07859998  0.05553900    -0.06500
N239        N  0.51342862  0.09882252  0.07548368    -0.59100
N240        N  0.52994078  0.05925630  0.98780415    -0.04700
N241        N  0.55005040  0.06631286  0.96816912    -0.60300
N242        N  0.50921686  0.07908295  0.98814824    -0.06600
N243        N  0.51493993  0.09974115  0.96892501    -0.59300
N244        N  0.52867578  0.05882387  0.05537946    -0.04300
N245        N  0.54865038  0.06547987  0.07509144    -0.60400
Mn246      Mn  0.53056171  0.02382295  0.02141644     1.18400
C247        C  0.53887077  0.09031585  0.08788228     0.97900
C248        C  0.54034918  0.09162542  0.95620172     0.98600
N249        N  0.44013397  0.96712962  0.05349286    -0.06600
N250        N  0.43419659  0.94681181  0.07314437    -0.62900
N251        N  0.42032043  0.98713666  0.98566210    -0.05400
N252        N  0.39985151  0.98033902  0.96645856    -0.63600
N253        N  0.44051481  0.96669406  0.98608805    -0.06100
N254        N  0.43374373  0.94568335  0.96729915    -0.63200
N255        N  0.41933900  0.98695212  0.05317712    -0.05000
N256        N  0.39895086  0.98013336  0.07256745    -0.63900
Mn257      Mn  0.47574716  0.96682294  0.02019750     1.10700
C258        C  0.40845935  0.95506093  0.08516620     0.99100
C259        C  0.40837684  0.95446303  0.95482124     0.99200
N260        N  0.43917877  0.07891932  0.98661062    -0.06100
N261        N  0.43156016  0.10083783  0.96931868    -0.61500
N262        N  0.41783485  0.05808880  0.05318243    -0.05400
N263        N  0.39644224  0.06487300  0.07133216    -0.58200
N264        N  0.43796013  0.07847407  0.05405046    -0.06700
N265        N  0.43057626  0.09913217  0.07300638    -0.61100
N266        N  0.41918821  0.05833395  0.98590477    -0.05700
N267        N  0.39776043  0.06618525  0.96819182    -0.58200
Mn268      Mn  0.47366324  0.07904470  0.02111263     1.20200
Mn269      Mn  0.41879610  0.02253635  0.01942632     1.10100
Cl270      Cl  0.47465786  0.02300651  0.02048358    -0.86200
C271        C  0.40575886  0.09263147  0.95746734     0.96100
C272        C  0.40465026  0.09035968  0.08410102     0.95900
C273        C  0.56034079  0.93918900  0.10970898    -0.02700
C274        C  0.39001337  0.93653510  0.93271519    -0.02700
C275        C  0.38444224  0.11398280  0.94248119    -0.02700
C276        C  0.56347271  0.94055563  0.93313674    -0.02700
C277        C  0.39171675  0.93711534  0.10839396    -0.02700
C278        C  0.50215568  0.75827321  0.74839830     0.02000
C279        C  0.47140765  0.75857936  0.74742162     0.02000
C280        C  0.45577001  0.77908263  0.76383994    -0.18500
C281        C  0.47047325  0.79948967  0.78113736     0.02000
C282        C  0.50124295  0.79959410  0.78175152     0.02000
C283        C  0.51694268  0.77881941  0.76558896    -0.18500
H284        H  0.54048617  0.77873291  0.76628494     0.04000
H285        H  0.43222623  0.77926483  0.76301075     0.04000
C286        C  0.38476990  0.10732583  0.10564680    -0.02700
C287        C  0.55679463  0.10864529  0.10967742    -0.02700
C288        C  0.95629274  0.76230344  0.24795778     0.02000
C289        C  0.98645511  0.75803972  0.25235728     0.02000
C290        C  0.00135573  0.77500547  0.27300786    -0.18500
C291        C  0.98654019  0.79666295  0.28877514     0.02000
C292        C  0.95673860  0.80192024  0.28320749     0.02000
C293        C  0.94167347  0.78437365  0.26321043    -0.18500
H294        H  0.91869347  0.78796329  0.25944624     0.04000
H295        H  0.02436134  0.77148820  0.27666947     0.04000
C296        C  0.70043108  0.01712797  0.25821652     0.02000
C297        C  0.69791708  0.04779004  0.26010162     0.02000
C298        C  0.71623859  0.06361877  0.27886132    -0.18500
C299        C  0.73669227  0.04900684  0.29630214     0.02000
C300        C  0.73859588  0.01828120  0.29500257     0.02000
C301        C  0.72060454  0.00252682  0.27590569    -0.18500
H302        H  0.72240817  0.97903484  0.27472080     0.04000
H303        H  0.71454759  0.08712389  0.27991158     0.04000
C304        C  0.71469398  0.29819387  0.53228673     0.02000
C305        C  0.72806873  0.31023236  0.50722238     0.02000
C306        C  0.75366830  0.29736307  0.49629061    -0.18500
C307        C  0.76558991  0.27244843  0.50983592     0.02000
C308        C  0.75015100  0.25888265  0.53306026     0.02000
C309        C  0.72560994  0.27263947  0.54488537    -0.18500
H310        H  0.71462437  0.26314430  0.56356113     0.04000
H311        H  0.76420028  0.30662021  0.47725192     0.04000
C312        C  0.24258928  0.75742742  0.51720635     0.02000
C313        C  0.24033388  0.75492857  0.54799003     0.02000
C314        C  0.21967420  0.77152747  0.56336185    -0.18500
C315        C  0.20053513  0.78994901  0.54819719     0.02000
C316        C  0.20175552  0.79117247  0.51729435     0.02000
C317        C  0.22296468  0.77523530  0.50198234    -0.18500
H318        H  0.22417259  0.77668422  0.47836555     0.04000
H319        H  0.21843726  0.77003431  0.58697298     0.04000
C320        C  0.89342894  0.11578630  0.43704362    -0.02700
N321        N  0.93987772  0.06202488  0.57773583    -0.06400
N322        N  0.93262899  0.08111231  0.59821902    -0.58500
N323        N  0.91989327  0.99443322  0.55829661    -0.06000
N324        N  0.89925902  0.97531604  0.56467889    -0.60600
N325        N  0.93958218  0.99485743  0.57925505    -0.05600
N326        N  0.93234111  0.97617030  0.60020949    -0.58500
N327        N  0.91994550  0.06174025  0.55704665    -0.05300
N328        N  0.89902667  0.08068979  0.56322076    -0.61000
C329        C  0.90725158  0.09310141  0.58888647     0.95800
C330        C  0.90713224  0.96376302  0.59089814     0.95600
N331        N  0.94078387  0.99299593  0.46684809    -0.06500
N332        N  0.93330002  0.97431078  0.44598810    -0.59100
N333        N  0.92132478  0.06072730  0.48646346    -0.04700
N334        N  0.90135019  0.08051733  0.47998373    -0.60300
N335        N  0.94157435  0.06004962  0.46600946    -0.06600
N336        N  0.93543230  0.07929263  0.44530071    -0.59300
N337        N  0.92051737  0.99382357  0.48721985    -0.04300
N338        N  0.89914046  0.97585238  0.48036473    -0.60400
Mn339      Mn  0.92013987  0.02763822  0.52225740     1.18400
C340        C  0.90734585  0.96324224  0.45479710     0.97900
C341        C  0.91036331  0.09224710  0.45427194     0.98600
N342        N  0.01030367  0.99451837  0.58001725    -0.06600
N343        N  0.01682231  0.97655830  0.60174135    -0.62900
N344        N  0.03122077  0.06165232  0.55840714    -0.05400
N345        N  0.05224591  0.08015355  0.56550481    -0.63600
N346        N  0.01071722  0.06203756  0.57863351    -0.06100
N347        N  0.01771938  0.08074206  0.59963398    -0.63200
N348        N  0.03111714  0.99406541  0.56014176    -0.05000
N349        N  0.05203895  0.97585683  0.56839356    -0.63900
Mn350      Mn  0.97515657  0.02838252  0.57924850     1.10700
C351        C  0.04261715  0.96423469  0.59410656     0.99100
C352        C  0.04345861  0.09256603  0.59105938     0.99200
N353        N  0.01250018  0.05895064  0.46618766    -0.06100
N354        N  0.02011526  0.07652990  0.44449118    -0.61500
N355        N  0.03141194  0.99240223  0.48875824    -0.05400
N356        N  0.05180039  0.97284632  0.48302569    -0.58200
N357        N  0.01130354  0.99169952  0.46819328    -0.06700
N358        N  0.01777649  0.97146641  0.44843818    -0.61100
N359        N  0.03232784  0.05969740  0.48701437    -0.05700
N360        N  0.05346745  0.07798707  0.47968920    -0.58200
Mn361      Mn  0.97658271  0.02590788  0.46638148     1.20200
Mn362      Mn  0.03192873  0.02699541  0.52357601     1.10100
Cl363      Cl  0.97598389  0.02723596  0.52286595    -0.86200
C364        C  0.04555824  0.08880613  0.45315509     0.96100
C365        C  0.04304559  0.95943116  0.45805251     0.95900
C366        C  0.88700450  0.94271860  0.43732215    -0.02700
C367        C  0.06201294  0.93736337  0.44080598    -0.02700
C368        C  0.06268070  0.94883925  0.61645952    -0.02700
C369        C  0.88841608  0.11420335  0.60747539    -0.02700
C370        C  0.88854034  0.94122374  0.60815138    -0.02700
C371        C  0.69981753  0.76726144  0.50177244     0.02000
C372        C  0.70106644  0.76587285  0.53268180     0.02000
C373        C  0.71975991  0.78452718  0.54820065    -0.18500
C374        C  0.73872933  0.80312923  0.53306129     0.02000
C375        C  0.73963554  0.80222784  0.50212829     0.02000
C376        C  0.71984441  0.78477490  0.48663230    -0.18500
H377        H  0.72008389  0.78476753  0.46294190     0.04000
H378        H  0.71984001  0.78425161  0.57189067     0.04000
C379        C  0.06518967  0.10811420  0.43338149    -0.02700
C380        C  0.06410097  0.10912879  0.61196581    -0.02700
C381        C  0.95704301  0.75321514  0.78779472     0.02000
C382        C  0.98751040  0.75642494  0.79075294     0.02000
C383        C  0.00213332  0.77824588  0.77506315    -0.18500
C384        C  0.98673915  0.79645602  0.75591326     0.02000
C385        C  0.95630915  0.79306824  0.75283730     0.02000
C386        C  0.94166368  0.77135774  0.76860848    -0.18500
H387        H  0.91836125  0.76885536  0.76624612     0.04000
H388        H  0.02541291  0.78084811  0.77753527     0.04000
C389        C  0.72233037  0.04722952  0.80651701     0.02000
C390        C  0.72459572  0.01676576  0.81049484     0.02000
C391        C  0.74492071  0.00078557  0.79402045    -0.18500
C392        C  0.76306973  0.01504777  0.77382147     0.02000
C393        C  0.76048048  0.04549904  0.76994924     0.02000
C394        C  0.74025827  0.06140589  0.78633542    -0.18500
H395        H  0.73804393  0.08465190  0.78293203     0.04000
H396        H  0.74635474  0.97738885  0.79663196     0.04000
C397        C  0.72319891  0.73559269  0.00337704     0.02000
C398        C  0.72361881  0.73638837  0.03430069     0.02000
C399        C  0.70496013  0.75540674  0.04934221    -0.18500
C400        C  0.68556233  0.77328991  0.03382468     0.02000
C401        C  0.68313284  0.77044052  0.00305329     0.02000
C402        C  0.70264159  0.75220035  0.98797136    -0.18500
H403        H  0.70222184  0.75138614  0.96429472     0.04000
H404        H  0.70645766  0.75723386  0.07291843     0.04000
C405        C  0.93740093  0.90108003  0.66249876    -0.11100
C406        C  0.92531463  0.87297810  0.66216789     0.06100
C407        C  0.90669576  0.86556246  0.63927226    -0.09900
C408        C  0.89786591  0.88628679  0.61902103    -0.11500
C409        C  0.90740357  0.91568908  0.62053419    -0.01300
C410        C  0.92898761  0.92194721  0.64172530    -0.10400
C411        C  0.93012152  0.85188839  0.68641044     0.06100
H412        H  0.89657126  0.84429856  0.63846170     0.08000
H413        H  0.88039617  0.87914094  0.60528573     0.11500
H414        H  0.93674834  0.94394453  0.64472794     0.11700
H415        H  0.95239394  0.90737202  0.67961087     0.08000
C416        C  0.93202107  0.82182245  0.68061448    -0.11100
C417        C  0.93693250  0.80198140  0.70319286    -0.10400
C418        C  0.94053718  0.81181184  0.73192722    -0.01300
C419        C  0.93682788  0.84150737  0.73818546    -0.11500
C420        C  0.93166230  0.86139731  0.71562180    -0.09900
H421        H  0.93110451  0.81367984  0.65842475     0.08000
H422        H  0.94047247  0.77926586  0.69788609     0.11700
H423        H  0.94002482  0.84950793  0.76023697     0.11500
H424        H  0.92947223  0.88425418  0.72098087     0.08000
C425        C  0.86105413  0.99140353  0.67178344    -0.11100
C426        C  0.84226249  0.97209955  0.68645791     0.06100
C427        C  0.84090908  0.94324938  0.67724360    -0.09900
C428        C  0.85671106  0.93404285  0.65314001    -0.11500
C429        C  0.87385568  0.95352752  0.63630644    -0.01300
C430        C  0.87628974  0.98245013  0.64649298    -0.10400
C431        C  0.82239706  0.98162480  0.71017076     0.06100
H432        H  0.82706480  0.92778992  0.68847404     0.08000
H433        H  0.85411386  0.91158202  0.64658170     0.11500
H434        H  0.88951770  0.99819070  0.63501720     0.11700
H435        H  0.86329667  0.01350606  0.67949442     0.08000
C436        C  0.83301711  0.99422453  0.73596410    -0.11100
C437        C  0.81377650  0.00220312  0.75839333    -0.10400
C438        C  0.78359544  0.99848313  0.75500652    -0.01300
C439        C  0.77312082  0.98502069  0.72962234    -0.11500
C440        C  0.79234897  0.97652435  0.70749840    -0.09900
H441        H  0.85609459  0.99798673  0.73866767     0.08000
H442        H  0.82223801  0.01295411  0.77766748     0.11700
H443        H  0.74994407  0.98262966  0.72621680     0.11500
H444        H  0.78368058  0.96671620  0.68780263     0.08000
C445        C  0.84916230  0.89072250  0.55457599    -0.11100
C446        C  0.82040293  0.89256477  0.56514114     0.06100
C447        C  0.81288892  0.91677951  0.58224831    -0.09900
C448        C  0.83429105  0.93577063  0.59235821    -0.11500
C449        C  0.86408431  0.92996361  0.58718041    -0.01300
C450        C  0.87051868  0.91042423  0.56422096    -0.10400
C451        C  0.79865893  0.86896058  0.55977158     0.06100
H452        H  0.79080970  0.91995659  0.58979363     0.08000
H453        H  0.82741595  0.95330853  0.60656344     0.11500
H454        H  0.89285253  0.90700849  0.55752748     0.11700
H455        H  0.85547646  0.87324205  0.54000636     0.08000
C456        C  0.80704889  0.83945524  0.56009323    -0.11100
C457        C  0.78667303  0.81735109  0.55476997    -0.10400
C458        C  0.75754371  0.82429238  0.54882075    -0.01300
C459        C  0.74877453  0.85351255  0.55024664    -0.11500
C460        C  0.76906858  0.87559208  0.55553362    -0.09900
H461        H  0.82948160  0.83346191  0.56396296     0.08000
H462        H  0.79403761  0.79500637  0.55318069     0.11700
H463        H  0.72659336  0.85942178  0.54496124     0.11500
H464        H  0.76173136  0.89796906  0.55492910     0.08000
C465        C  0.79227213  0.06415832  0.69680957    -0.11100
C466        C  0.82052158  0.07272885  0.70481283     0.06100
C467        C  0.82704129  0.07626820  0.73468180    -0.09900
C468        C  0.80617341  0.07040912  0.75602712    -0.11500
C469        C  0.77865938  0.06026590  0.74794507    -0.01300
C470        C  0.77154507  0.05785814  0.71823882    -0.10400
C471        C  0.84276151  0.07921977  0.68217336     0.06100
H472        H  0.84862828  0.08252287  0.74166471     0.08000
H473        H  0.81218292  0.07162547  0.77889297     0.11500
H474        H  0.75048128  0.04955953  0.71173015     0.11700
H475        H  0.78629409  0.06195343  0.67402783     0.08000
C476        C  0.84439591  0.06331935  0.65592751    -0.11100
C477        C  0.86318309  0.07202192  0.63344849    -0.10400
C478        C  0.87942358  0.09802016  0.63588916    -0.01300
C479        C  0.87926004  0.11228579  0.66343695    -0.11500
C480        C  0.86143917  0.10289657  0.68605834    -0.09900
H481        H  0.83037831  0.04474213  0.65231495     0.08000
H482        H  0.86228502  0.06045954  0.61282954     0.11700
H483        H  0.88995914  0.13277463  0.66722151     0.11500
H484        H  0.86048213  0.11596807  0.70574761     0.08000
C485        C  0.04536248  0.90976462  0.68937851    -0.11100
C486        C  0.02352316  0.89040041  0.68100916     0.06100
C487        C  0.01143435  0.89324300  0.65288085    -0.09900
C488        C  0.02193713  0.91427855  0.63320967    -0.11500
C489        C  0.04501262  0.93305774  0.64092901    -0.01300
C490        C  0.05624962  0.93013385  0.66972384    -0.10400
C491        C  0.01571405  0.86582556  0.70077382     0.06100
H492        H  0.99455230  0.87847996  0.64569003     0.08000
H493        H  0.01333534  0.91449206  0.61118839     0.11500
H494        H  0.07542640  0.94150552  0.67688474     0.11700
H495        H  0.05581888  0.90766368  0.71048672     0.08000
C496        C  0.01340490  0.87002089  0.73122719    -0.11100
C497        C  0.00658887  0.84672319  0.74976853    -0.10400
C498        C  0.00204500  0.81880300  0.73823587    -0.01300
C499        C  0.00567996  0.81428775  0.70809487    -0.11500
C500        C  0.01224189  0.83756444  0.68952875    -0.09900
H501        H  0.01593678  0.89151932  0.74060412     0.08000
H502        H  0.00314505  0.85079994  0.77284431     0.11700
H503        H  0.00176370  0.79298331  0.69873493     0.11500
H504        H  0.01451513  0.83344336  0.66632878     0.08000
C505        C  0.83355577  0.90588987  0.48873697    -0.11100
C506        C  0.83575672  0.87703463  0.47853388     0.06100
C507        C  0.86163740  0.86860403  0.46460989    -0.09900
C508        C  0.88192991  0.88955390  0.45618868    -0.11500
C509        C  0.87550146  0.91950839  0.45941957    -0.01300
C510        C  0.85403519  0.92681415  0.48026905    -0.10400
C511        C  0.81055008  0.85668750  0.48035825     0.06100
H512        H  0.86516149  0.84635050  0.45771937     0.08000
H513        H  0.90059595  0.88229947  0.44373693     0.11500
H514        H  0.84959783  0.94934328  0.48557175     0.11700
H515        H  0.81494329  0.91279329  0.50148287     0.08000
C516        C  0.78189369  0.86730262  0.47786982    -0.11100
C517        C  0.75809453  0.84863477  0.48114753    -0.10400
C518        C  0.76248292  0.81898765  0.48679583    -0.01300
C519        C  0.79087885  0.80784864  0.48659047    -0.11500
C520        C  0.81470223  0.82651379  0.48367796    -0.09900
H521        H  0.77778379  0.89021806  0.47423784     0.08000
H522        H  0.73636435  0.85771365  0.48172920     0.11700
H523        H  0.79468813  0.78512352  0.49162772     0.11500
H524        H  0.83629459  0.81742170  0.48577062     0.08000
C525        C  0.16334371  0.85858796  0.49228260    -0.11100
C526        C  0.13449594  0.84854712  0.49044694     0.06100
C527        C  0.12924936  0.81843987  0.49259801    -0.09900
C528        C  0.15209819  0.79907959  0.49779988    -0.11500
C529        C  0.18049190  0.80948311  0.50158142    -0.01300
C530        C  0.18611667  0.83922938  0.49794142    -0.10400
C531        C  0.11033985  0.86926605  0.48454339     0.06100
H532        H  0.10735108  0.80991218  0.49144493     0.08000
H533        H  0.14728943  0.77626381  0.50131571     0.11500
H534        H  0.20783285  0.84767134  0.50133796     0.11700
H535        H  0.16828310  0.88149286  0.48980808     0.08000
C536        C  0.11040618  0.89766581  0.49604203    -0.11100
C537        C  0.09114904  0.91878629  0.48533620    -0.10400
C538        C  0.07262599  0.91242295  0.46145885    -0.01300
C539        C  0.06964932  0.88259479  0.45381636    -0.11500
C540        C  0.08831024  0.86155660  0.46500500    -0.09900
H541        H  0.12650534  0.90404553  0.51207039     0.08000
H542        H  0.09430762  0.94093037  0.49261506     0.11700
H543        H  0.05520550  0.87505139  0.43695666     0.11500
H544        H  0.08708200  0.83975464  0.45608511     0.08000
C545        C  0.09591375  0.88593221  0.56919525    -0.11100
C546        C  0.11859696  0.87641708  0.58758200     0.06100
C547        C  0.12220019  0.88982047  0.61463295    -0.09900
C548        C  0.10401337  0.91236339  0.62315539    -0.11500
C549        C  0.08212747  0.92371693  0.60447198    -0.01300
C550        C  0.07811419  0.90973278  0.57728916    -0.10400
C551        C  0.13947813  0.85326441  0.57901553     0.06100
H552        H  0.13916697  0.88267558  0.62941197     0.08000
H553        H  0.10793985  0.92167142  0.64447406     0.11500
H554        H  0.06099701  0.91660711  0.56264058     0.11700
H555        H  0.09222903  0.87515437  0.54850885     0.08000
C556        C  0.13013617  0.82483299  0.57285677    -0.11100
C557        C  0.15042595  0.80306313  0.56581297    -0.10400
C558        C  0.18026158  0.80959191  0.56416367    -0.01300
C559        C  0.18960735  0.83773470  0.57138705    -0.11500
C560        C  0.16945259  0.85928413  0.57894883    -0.09900
H561        H  0.10720121  0.81956080  0.57332874     0.08000
H562        H  0.14273027  0.78158704  0.55987050     0.11700
H563        H  0.21239087  0.84342180  0.56961658     0.11500
H564        H  0.17719088  0.88099492  0.58393586     0.08000
C565        C  0.81255584  0.22486332  0.46333812    -0.11100
C566        C  0.83150507  0.21324083  0.48461042     0.06100
C567        C  0.83406383  0.22786380  0.51147283    -0.09900
C568        C  0.81518885  0.25092249  0.51820599    -0.11500
C569        C  0.79286021  0.25887674  0.49863251    -0.01300
C570        C  0.79320417  0.24725033  0.47037263    -0.10400
C571        C  0.84564281  0.18441662  0.47933996     0.06100
H572        H  0.84866983  0.21993445  0.52821797     0.08000
H573        H  0.81568546  0.26009626  0.54002299     0.11500
H574        H  0.77660126  0.25329119  0.45473162     0.11700
H575        H  0.81109457  0.21512062  0.44182541     0.08000
C576        C  0.83034747  0.16319540  0.46359519    -0.11100
C577        C  0.84423324  0.13824900  0.45358211    -0.10400
C578        C  0.87424356  0.13388686  0.45863268    -0.01300
C579        C  0.88717941  0.15115664  0.48075672    -0.11500
C580        C  0.87351489  0.17712814  0.48992164    -0.09900
H581        H  0.80780673  0.16652077  0.45764268     0.08000
H582        H  0.83156359  0.12405234  0.43977433     0.11700
H583        H  0.90962949  0.14751098  0.48684671     0.11500
H584        H  0.88542703  0.19215687  0.50364184     0.08000
C585        C  0.77847942  0.18158332  0.53416669    -0.11100
C586        C  0.79147255  0.18047774  0.56188182     0.06100
C587        C  0.78653733  0.20352585  0.58162741    -0.09900
C588        C  0.77075851  0.22813402  0.57312222    -0.11500
C589        C  0.75958174  0.23013094  0.54472158    -0.01300
C590        C  0.76224294  0.20602292  0.52583861    -0.10400
C591        C  0.81211372  0.15689732  0.56987580     0.06100
H592        H  0.79647570  0.20333141  0.60308693     0.08000
H593        H  0.76914638  0.24647174  0.58793772     0.11500
H594        H  0.75362397  0.20709722  0.50383780     0.11700
H595        H  0.78179224  0.16408056  0.51863671     0.08000
C596        C  0.83594769  0.15002284  0.55196248    -0.11100
C597        C  0.85956980  0.13384637  0.56280276    -0.10400
C598        C  0.85949425  0.12332006  0.59183003    -0.01300
C599        C  0.83361774  0.12810595  0.60836233    -0.11500
C600        C  0.81057870  0.14445777  0.59756969    -0.09900
H601        H  0.83725821  0.15922377  0.53045355     0.08000
H602        H  0.87883239  0.13190298  0.54935043     0.11700
H603        H  0.83145342  0.12165127  0.63089425     0.11500
H604        H  0.79227361  0.14906847  0.61177333     0.08000
C605        C  0.84821085  0.99490584  0.38471449    -0.11100
C606        C  0.82007104  0.98291281  0.38338807     0.06100
C607        C  0.81248954  0.96164968  0.40385204    -0.09900
C608        C  0.83274126  0.95105401  0.42361484    -0.11500
C609        C  0.86185898  0.96122572  0.42402538    -0.01300
C610        C  0.86870889  0.98437807  0.40487443    -0.10400
C611        C  0.79908069  0.99046703  0.35973017     0.06100
H612        H  0.79147548  0.95108905  0.40308498     0.08000
H613        H  0.82577905  0.93205917  0.43539893     0.11500
H614        H  0.89070937  0.99266492  0.40377902     0.11700
H615        H  0.85474806  0.01174311  0.36953024     0.08000
C616        C  0.80872605  0.99664571  0.33117938    -0.11100
C617        C  0.78874635  0.00297958  0.30899467    -0.10400
C618        C  0.75880347  0.00303778  0.31489122    -0.01300
C619        C  0.74903632  0.99565817  0.34289207    -0.11500
C620        C  0.76891222  0.98983568  0.36515575    -0.09900
H621        H  0.83167730  0.99677205  0.32597001     0.08000
H622        H  0.79665847  0.00937598  0.28763377     0.11700
H623        H  0.72606667  0.99660169  0.34806492     0.11500
H624        H  0.76053705  0.98579735  0.38689166     0.08000
C625        C  0.83504705  0.06801107  0.39840271    -0.11100
C626        C  0.82761850  0.08554274  0.37425668     0.06100
C627        C  0.84310521  0.11118708  0.36958897    -0.09900
C628        C  0.86480558  0.11975386  0.38882596    -0.11500
C629        C  0.87334158  0.10230095  0.41303017    -0.01300
C630        C  0.85787766  0.07605176  0.41735569    -0.10400
C631        C  0.80316503  0.07836582  0.35423320     0.06100
H632        H  0.83735300  0.12558142  0.35174404     0.08000
H633        H  0.87387311  0.14110819  0.38510886     0.11500
H634        H  0.86231185  0.06252855  0.43618433     0.11700
H635        H  0.82290835  0.04832752  0.40282642     0.08000
C636        C  0.80693504  0.08036184  0.32374398    -0.11100
C637        C  0.78408236  0.07377141  0.30466965    -0.10400
C638        C  0.75694089  0.06522504  0.31567426    -0.01300
C639        C  0.75260055  0.06490943  0.34610624    -0.11500
C640        C  0.77558605  0.07114231  0.36523254    -0.09900
H641        H  0.82793665  0.08600315  0.31465453     0.08000
H642        H  0.78814067  0.07339674  0.28133654     0.11700
H643        H  0.73197152  0.05782919  0.35503412     0.11500
H644        H  0.77192060  0.07001332  0.38859512     0.08000
C645        C  0.00261096  0.83338188  0.36058989    -0.11100
C646        C  0.01603376  0.85917700  0.35104438     0.06100
C647        C  0.02309572  0.86188590  0.32113390    -0.09900
C648        C  0.01649329  0.83974988  0.30129252    -0.11500
C649        C  0.00187742  0.81475452  0.31067247    -0.01300
C650        C  0.99551784  0.81141525  0.34054746    -0.10400
C651        C  0.02456398  0.88247734  0.37212158     0.06100
H652        H  0.03296011  0.88158583  0.31278412     0.08000
H653        H  0.02070570  0.84313943  0.27823451     0.11500
H654        H  0.98363460  0.79248846  0.34804959     0.11700
H655        H  0.99738768  0.83026400  0.38345490     0.08000
C656        C  0.00784188  0.88983720  0.39694475    -0.11100
C657        C  0.01797701  0.91050193  0.41739555    -0.10400
C658        C  0.04571933  0.92344457  0.41417072    -0.01300
C659        C  0.06144272  0.91628405  0.38835902    -0.11500
C660        C  0.05103927  0.89664175  0.36795432    -0.09900
H661        H  0.98734940  0.87901905  0.40104159     0.08000
H662        H  0.00543537  0.91416198  0.43709144     0.11700
H663        H  0.08324168  0.92378842  0.38424036     0.11500
H664        H  0.06505392  0.89106670  0.34975317     0.08000
C665        C  0.94135240  0.87590708  0.31534093    -0.11100
C666        C  0.92495634  0.86831229  0.34002728     0.06100
C667        C  0.91587800  0.83923619  0.34348388    -0.09900
C668        C  0.92409726  0.81791182  0.32336143    -0.11500
C669        C  0.94143445  0.82528691  0.29935800    -0.01300
C670        C  0.94917032  0.85457945  0.29490526    -0.10400
C671        C  0.91633002  0.89033692  0.36206216     0.06100
H672        H  0.90326403  0.83281262  0.36241866     0.08000
H673        H  0.91844111  0.79539194  0.32746484     0.11500
H674        H  0.96275882  0.86057165  0.27652481     0.11700
H675        H  0.94826774  0.89819219  0.31202930     0.08000
C676        C  0.93649111  0.90901037  0.37559924    -0.11100
C677        C  0.92825124  0.92644713  0.39965447    -0.10400
C678        C  0.89920832  0.92631245  0.40988460    -0.01300
C679        C  0.87917546  0.90857130  0.39430109    -0.11500
C680        C  0.88752843  0.89100138  0.37122433    -0.09900
H681        H  0.95883016  0.90925010  0.36824270     0.08000
H682        H  0.94504173  0.93889282  0.41016113     0.11700
H683        H  0.85682861  0.90660872  0.40114510     0.11500
H684        H  0.87140176  0.87716548  0.36097464     0.08000
C685        C  0.65860439  0.07073149  0.19256499    -0.11100
C686        C  0.62957435  0.06871116  0.20201449     0.06100
C687        C  0.62390248  0.06554645  0.23206367    -0.09900
C688        C  0.64676849  0.06259380  0.25195055    -0.11500
C689        C  0.67565697  0.06253860  0.24212423    -0.01300
C690        C  0.68145270  0.06779671  0.21248682    -0.10400
C691        C  0.60540332  0.07158952  0.18073218     0.06100
H692        H  0.60178776  0.06397903  0.24002606     0.08000
H693        H  0.64188256  0.05775370  0.27460609     0.11500
H694        H  0.70359581  0.06719329  0.20442896     0.11700
H695        H  0.66364851  0.07399181  0.16966902     0.08000
C696        C  0.58178536  0.08952939  0.18734418    -0.11100
C697        C  0.56277279  0.09838386  0.16544429    -0.10400
C698        C  0.56665443  0.08936459  0.13598367    -0.01300
C699        C  0.58695035  0.06667919  0.13103070    -0.11500
C700        C  0.60696811  0.05899399  0.15277732    -0.09900
H701        H  0.57965173  0.09926538  0.20881568     0.08000
H702        H  0.54750759  0.11485037  0.17194740     0.11700
H703        H  0.59092710  0.05858563  0.10919860     0.11500
H704        H  0.62472174  0.04453251  0.14719413     0.08000
C705        C  0.68900061  0.99646264  0.88172773    -0.11100
C706        C  0.66011179  0.99185384  0.87276327     0.06100
C707        C  0.65394072  0.99116212  0.84266106    -0.09900
C708        C  0.67588972  0.99609686  0.82205367    -0.11500
C709        C  0.70439244  0.00214440  0.83110578    -0.01300
C710        C  0.71091736  0.00162934  0.86107509    -0.10400
C711        C  0.63674495  0.98562947  0.89438595     0.06100
H712        H  0.63204879  0.98699308  0.83504917     0.08000
H713        H  0.67027091  0.99709273  0.79907994     0.11500
H714        H  0.73257318  0.00711597  0.86853596     0.11700
H715        H  0.69444729  0.99707262  0.90474539     0.08000
C716        C  0.64181149  0.96580793  0.91704869    -0.11100
C717        C  0.61855751  0.95402390  0.93260911    -0.10400
C718        C  0.58949531  0.96081349  0.92492029    -0.01300
C719        C  0.58526737  0.98572115  0.90739082    -0.11500
C720        C  0.60851765  0.99702941  0.89106026    -0.09900
H721        H  0.66346377  0.95752899  0.92119059     0.08000
H722        H  0.62356618  0.93780002  0.94897212     0.11700
H723        H  0.56347361  0.99343203  0.90288232     0.11500
H724        H  0.60414548  0.01340072  0.87462124     0.08000
C725        C  0.60691312  0.86904706  0.93092177    -0.11100
C726        C  0.60465575  0.85803282  0.95925122     0.06100
C727        C  0.58610192  0.87232304  0.97923295    -0.09900
C728        C  0.57228473  0.89873805  0.97170708    -0.11500
C729        C  0.57610329  0.91082213  0.94360162    -0.01300
C730        C  0.59291365  0.89465044  0.92324557    -0.10400
C731        C  0.62365002  0.83320623  0.96793796     0.06100
H732        H  0.58312339  0.86359242  0.00097290     0.08000
H733        H  0.55931189  0.90973957  0.98804761     0.11500
H734        H  0.59658160  0.90271571  0.90135515     0.11700
H735        H  0.62025474  0.85819670  0.91469979     0.08000
C736        C  0.61328174  0.81039140  0.98547584    -0.11100
C737        C  0.63210500  0.78815224  0.99456391    -0.10400
C738        C  0.66176327  0.78866447  0.98683047    -0.01300
C739        C  0.67175325  0.81057159  0.96810035    -0.11500
C740        C  0.65295127  0.83261923  0.95882934    -0.09900
H741        H  0.59081308  0.81002215  0.99253832     0.08000
H742        H  0.62396082  0.77144430  0.00911588     0.11700
H743        H  0.69455892  0.81176000  0.96230894     0.11500
H744        H  0.66175555  0.85004429  0.94558117     0.08000
C745        C  0.52500347  0.87277461  0.80896794    -0.11100
C746        C  0.52529971  0.86795169  0.83936839     0.06100
C747        C  0.52319573  0.83913337  0.84964794    -0.09900
C748        C  0.51864948  0.81607685  0.83027338    -0.11500
C749        C  0.51633254  0.82127381  0.80020877    -0.01300
C750        C  0.52069346  0.84957837  0.78955468    -0.10400
C751        C  0.52843559  0.89251684  0.86047034     0.06100
H752        H  0.52438469  0.83439641  0.87279349     0.08000
H753        H  0.51486218  0.79445431  0.83890615     0.11500
H754        H  0.51828784  0.85406505  0.76643431     0.11700
H755        H  0.52659224  0.89460720  0.80023187     0.08000
C756        C  0.54734171  0.91560400  0.85458917    -0.11100
C757        C  0.55564305  0.93472267  0.87682218    -0.10400
C758        C  0.54503530  0.93158630  0.90590404    -0.01300
C759        C  0.52236604  0.91122456  0.91002146    -0.11500
C760        C  0.51483771  0.89159044  0.88792580    -0.09900
H761        H  0.55826899  0.91712001  0.83366874     0.08000
H762        H  0.57345174  0.94875737  0.87122880     0.11700
H763        H  0.51355059  0.90720363  0.93154249     0.11500
H764        H  0.50009640  0.87414877  0.89317221     0.08000
C765        C  0.41183157  0.90897554  0.85561591    -0.11100
C766        C  0.42989251  0.88564190  0.86299434     0.06100
C767        C  0.43938108  0.88325904  0.89206949    -0.09900
C768        C  0.43022038  0.90312652  0.91343405    -0.11500
C769        C  0.40922591  0.92470548  0.90704670    -0.01300
C770        C  0.40129161  0.92780503  0.87712686    -0.10400
C771        C  0.43727623  0.86302582  0.84079266     0.06100
H772        H  0.45280747  0.86513574  0.89870939     0.08000
H773        H  0.43661823  0.89900772  0.93580410     0.11500
H774        H  0.38454368  0.94228531  0.86976006     0.11700
H775        H  0.40369262  0.91124361  0.83351545     0.08000
C776        C  0.44372049  0.87082354  0.81173467    -0.11100
C777        C  0.45189100  0.84962445  0.79131063    -0.10400
C778        C  0.45400383  0.82030310  0.79960063    -0.01300
C779        C  0.44604774  0.81221592  0.82803848    -0.11500
C780        C  0.43770549  0.83335223  0.84843475    -0.09900
H781        H  0.44368647  0.89344258  0.80510458     0.08000
H782        H  0.45841776  0.85630599  0.76956612     0.11700
H783        H  0.44791343  0.78973281  0.83491073     0.11500
H784        H  0.43211385  0.82650244  0.87037115     0.08000
C785        C  0.60328364  0.88843680  0.05680929    -0.11100
C786        C  0.61279340  0.86647236  0.07608497     0.06100
C787        C  0.60444708  0.86792565  0.10533580    -0.09900
C788        C  0.58735127  0.89073103  0.11529504    -0.11500
C789        C  0.57627368  0.91242796  0.09615076    -0.01300
C790        C  0.58469955  0.91083415  0.06651914    -0.10400
C791        C  0.63243823  0.84259481  0.06660733     0.06100
H792        H  0.61232028  0.85206210  0.12096522     0.08000
H793        H  0.58363615  0.89170611  0.13858377     0.11500
H794        H  0.57825628  0.92756037  0.05119177     0.11700
H795        H  0.61060905  0.88852841  0.03436556     0.08000
C796        C  0.62744917  0.81373201  0.07582758    -0.11100
C797        C  0.64598616  0.79116366  0.06702244    -0.10400
C798        C  0.66985422  0.79715120  0.04897752    -0.01300
C799        C  0.67570632  0.82613777  0.04106165    -0.11500
C800        C  0.65701228  0.84859844  0.04950126    -0.09900
H801        H  0.60867142  0.80851750  0.08912575     0.08000
H802        H  0.64087426  0.76893136  0.07298097     0.11700
H803        H  0.69402272  0.83112685  0.02703430     0.11500
H804        H  0.66173917  0.87064882  0.04263312     0.08000
C805        C  0.59547876  0.99225335  0.16403271    -0.11100
C806        C  0.62430741  0.98185332  0.16481268     0.06100
C807        C  0.63371670  0.96380589  0.14202360    -0.09900
C808        C  0.61405266  0.95312648  0.12154307    -0.11500
C809        C  0.58392200  0.95935393  0.12374015    -0.01300
C810        C  0.57595983  0.98248976  0.14245249    -0.10400
C811        C  0.64441321  0.98854427  0.18953180     0.06100
H812        H  0.65594173  0.95609159  0.14111944     0.08000
H813        H  0.62267398  0.93821445  0.10546008     0.11500
H814        H  0.55351051  0.98953022  0.14354349     0.11700
H815        H  0.58774469  0.00713338  0.18067919     0.08000
C816        C  0.63444371  0.98857229  0.21864712    -0.11100
C817        C  0.65352494  0.99472691  0.24176340    -0.10400
C818        C  0.68286854  0.00112813  0.23618383    -0.01300
C819        C  0.69317063  0.99956033  0.20737590    -0.11500
C820        C  0.67416999  0.99351459  0.18430647    -0.09900
H821        H  0.61181940  0.98423303  0.22351046     0.08000
H822        H  0.64501104  0.99641285  0.26378780     0.11700
H823        H  0.71551276  0.00522705  0.20251275     0.11500
H824        H  0.68261968  0.99390494  0.16221676     0.08000
C825        C  0.60091181  0.09627868  0.86379685    -0.11100
C826        C  0.62333289  0.07889619  0.87448755     0.06100
C827        C  0.62091693  0.06749316  0.90287893    -0.09900
C828        C  0.59700504  0.07450720  0.92062031    -0.11500
C829        C  0.57487316  0.09351972  0.91068351    -0.01300
C830        C  0.57758403  0.10377761  0.88147524    -0.10400
C831        C  0.64967155  0.07437792  0.85630631     0.06100
H832        H  0.63798682  0.05386171  0.91172850     0.08000
H833        H  0.59759644  0.06728735  0.94306356     0.11500
H834        H  0.56394576  0.12061810  0.87260453     0.11700
H835        H  0.60250763  0.10623276  0.84239030     0.08000
C836        C  0.67756534  0.07526614  0.86881083    -0.11100
C837        C  0.70215469  0.06984185  0.85164818    -0.10400
C838        C  0.69914123  0.06337669  0.82182835    -0.01300
C839        C  0.67161866  0.06469254  0.80887013    -0.11500
C840        C  0.64706392  0.06993582  0.82597736    -0.09900
H841        H  0.68030680  0.07941601  0.89195103     0.08000
H842        H  0.72326840  0.06846571  0.86202056     0.11700
H843        H  0.66889317  0.05908715  0.78602221     0.11500
H844        H  0.62590013  0.06905006  0.81567779     0.08000
C845        C  0.43011261  0.16807082  0.81104143    -0.11100
C846        C  0.41692388  0.17877253  0.83656731     0.06100
C847        C  0.41143851  0.20891535  0.83875543    -0.09900
C848        C  0.42017815  0.22804725  0.81667975    -0.11500
C849        C  0.43476136  0.21752456  0.79196789    -0.01300
C850        C  0.43870528  0.18727598  0.78881777    -0.10400
C851        C  0.40865746  0.15915971  0.86116435     0.06100
H852        H  0.40155455  0.21792801  0.85826283     0.08000
H853        H  0.41753431  0.25126193  0.81991528     0.11500
H854        H  0.45023006  0.17875725  0.77000364     0.11700
H855        H  0.43427511  0.14499902  0.80854568     0.08000
C856        C  0.38202838  0.16361875  0.87498128    -0.11100
C857        C  0.37500689  0.14847862  0.90016479    -0.10400
C858        C  0.39431924  0.12811619  0.91313828    -0.01300
C859        C  0.42057387  0.12232590  0.89834716    -0.11500
C860        C  0.42746419  0.13758176  0.87238125    -0.09900
H861        H  0.36668147  0.17946106  0.86663644     0.08000
H862        H  0.35456659  0.15393459  0.91045993     0.11700
H863        H  0.43578645  0.10648561  0.90683227     0.11500
H864        H  0.44776770  0.13319800  0.86149039     0.08000
C865        C  0.51595544  0.17647561  0.90242326    -0.11100
C866        C  0.50742415  0.16509484  0.87519725     0.06100
C867        C  0.50507762  0.13461205  0.87247294    -0.09900
C868        C  0.51555716  0.11629336  0.89459473    -0.11500
C869        C  0.53153331  0.12839195  0.91791199    -0.01300
C870        C  0.52695243  0.15813841  0.92400931    -0.10400
C871        C  0.50341518  0.18480239  0.84952837     0.06100
H872        H  0.49707862  0.12485355  0.85250149     0.08000
H873        H  0.51594821  0.09302741  0.89075434     0.11500
H874        H  0.53534802  0.16794042  0.94380272     0.11700
H875        H  0.51694290  0.19967301  0.90629056     0.08000
C876        C  0.49348899  0.21351947  0.85341719    -0.11100
C877        C  0.49037124  0.23216984  0.82957911    -0.10400
C878        C  0.49612836  0.22239607  0.80109902    -0.01300
C879        C  0.50728202  0.19428783  0.79701447    -0.11500
C880        C  0.51105178  0.17569674  0.82103889    -0.09900
H881        H  0.48693945  0.22140449  0.87471378     0.08000
H882        H  0.48106365  0.25356778  0.83307248     0.11700
H883        H  0.51129000  0.18614514  0.77515012     0.11500
H884        H  0.51958484  0.15407324  0.81718172     0.08000
C885        C  0.44125092  0.81275965  0.16802027    -0.11100
C886        C  0.43760544  0.84223901  0.17556912     0.06100
C887        C  0.43748189  0.84995289  0.20534640    -0.09900
C888        C  0.44237640  0.82891865  0.22694454    -0.11500
C889        C  0.44782456  0.79985760  0.21915956    -0.01300
C890        C  0.44633868  0.79179535  0.18961691    -0.10400
C891        C  0.43246833  0.86468290  0.15267152     0.06100
H892        H  0.43403178  0.87234819  0.21190444     0.08000
H893        H  0.44396783  0.83566221  0.24958648     0.11500
H894        H  0.45121009  0.76964079  0.18312295     0.11700
H895        H  0.44142465  0.80608881  0.14531391     0.08000
C896        C  0.41328047  0.85891971  0.12966097    -0.11100
C897        C  0.40319900  0.88154308  0.11209551    -0.10400
C898        C  0.41113646  0.91081175  0.11796173    -0.01300
C899        C  0.43585356  0.91500300  0.13567995    -0.11500
C900        C  0.44503206  0.89258445  0.15442278    -0.09900
H901        H  0.40415597  0.83740179  0.12666017     0.08000
H902        H  0.38724827  0.87603794  0.09565015     0.11700
H903        H  0.44450579  0.93669577  0.13889216     0.11500
H904        H  0.46076183  0.89749483  0.17129397     0.08000
C905        C  0.51443442  0.85812204  0.22253461    -0.11100
C906        C  0.51865104  0.85504172  0.19217531     0.06100
C907        C  0.52010025  0.82675931  0.18035390    -0.09900
C908        C  0.51528861  0.80238141  0.19799655    -0.11500
C909        C  0.50906673  0.80577224  0.22780619    -0.01300
C910        C  0.50991559  0.83368803  0.24018813    -0.10400
C911        C  0.52226816  0.88102882  0.17297194     0.06100
H912        H  0.52423978  0.82343273  0.15729265     0.08000
H913        H  0.51422107  0.78103514  0.18797868     0.11500
H914        H  0.50443031  0.83676393  0.26302407     0.11700
H915        H  0.51302685  0.87945315  0.23248811     0.08000
C916        C  0.53730428  0.90548976  0.18305878    -0.11100
C917        C  0.54586377  0.92735952  0.16378923    -0.10400
C918        C  0.53974297  0.92562250  0.13335387    -0.01300
C919        C  0.52041311  0.90327535  0.12457484    -0.11500
C920        C  0.51256864  0.88093190  0.14384142    -0.09900
H921        H  0.54511923  0.90652845  0.20535346     0.08000
H922        H  0.56053810  0.94287835  0.17313414     0.11700
H923        H  0.51491255  0.90036017  0.10179550     0.11500
H924        H  0.49991538  0.86288513  0.13550276     0.08000
C925        C  0.13828957  0.98618136  0.72098630    -0.11100
C926        C  0.14550305  0.99594073  0.69272555     0.06100
C927        C  0.17329351  0.00770737  0.68786574    -0.09900
C928        C  0.19239920  0.01191982  0.71124342    -0.11500
C929        C  0.18395290  0.00462184  0.73980557    -0.01300
C930        C  0.15738750  0.99046146  0.74433645    -0.10400
C931        C  0.12397948  0.99355733  0.66864257     0.06100
H932        H  0.17958878  0.01534626  0.66639393     0.08000
H933        H  0.21264890  0.02335540  0.70747747     0.11500
H934        H  0.15037997  0.98504845  0.76628612     0.11700
H935        H  0.11740636  0.97616994  0.72524177     0.08000
C936        C  0.09420024  0.99853066  0.67383845    -0.11100
C937        C  0.07346366  0.98993633  0.65318988    -0.10400
C938        C  0.08238209  0.97335498  0.62886657    -0.01300
C939        C  0.11179999  0.97584930  0.62029040    -0.11500
C940        C  0.13262301  0.98493110  0.64051455    -0.09900
H941        H  0.08689077  0.00737196  0.69453552     0.08000
H942        H  0.05066999  0.99133407  0.65896490     0.11700
H943        H  0.11927608  0.96665615  0.59981402     0.11500
H944        H  0.15538597  0.98248609  0.63502697     0.08000
C945        C  0.15484000  0.07980774  0.70519134    -0.11100
C946        C  0.12630529  0.06957159  0.70927364     0.06100
C947        C  0.11814807  0.05898506  0.73688817    -0.09900
C948        C  0.13892822  0.05587057  0.75897258    -0.11500
C949        C  0.16807480  0.06326557  0.75371188    -0.01300
C950        C  0.17555669  0.07680983  0.72732369    -0.10400
C951        C  0.10543990  0.06993502  0.68457929     0.06100
H952        H  0.09625642  0.05123161  0.74073838     0.08000
H953        H  0.13289692  0.04500726  0.77909594     0.11500
H954        H  0.19799437  0.08235722  0.72278664     0.11700
H955        H  0.16144094  0.08893148  0.68439121     0.08000
C956        C  0.11420861  0.06164973  0.65626076    -0.11100
C957        C  0.09665100  0.06795056  0.63206361    -0.10400
C958        C  0.07275247  0.08664876  0.63585522    -0.01300
C959        C  0.06040567  0.08786163  0.66422180    -0.11500
C960        C  0.07707631  0.08030257  0.68854148    -0.09900
H961        H  0.13537858  0.05199935  0.65264857     0.08000
H962        H  0.10500824  0.06351567  0.61036698     0.11700
H963        H  0.03976579  0.09857758  0.66798052     0.11500
H964        H  0.06891060  0.08534837  0.71017286     0.08000
C965        C  0.25714399  0.07248133  0.88192919    -0.11100
C966        C  0.28635963  0.07707433  0.87422076     0.06100
C967        C  0.29414387  0.07794313  0.84455421    -0.09900
C968        C  0.27353105  0.07220916  0.82303073    -0.11500
C969        C  0.24491221  0.06528586  0.83085432    -0.01300
C970        C  0.23649483  0.06652917  0.86030489    -0.10400
C971        C  0.30885967  0.08131679  0.89681654     0.06100
H972        H  0.31638872  0.08222215  0.83807563     0.08000
H973        H  0.28039636  0.07089755  0.80039904     0.11500
H974        H  0.21459587  0.06061728  0.86666901     0.11700
H975        H  0.25065923  0.07197903  0.90469149     0.08000
C976        C  0.30475019  0.10200658  0.91869067    -0.11100
C977        C  0.32800829  0.11073904  0.93603164    -0.10400
C978        C  0.35608205  0.09801061  0.93305302    -0.01300
C979        C  0.35876897  0.07470498  0.91307527    -0.11500
C980        C  0.33572882  0.06711789  0.89470225    -0.09900
H981        H  0.28433632  0.11368690  0.92033609     0.08000
H982        H  0.32396390  0.13010517  0.94850479     0.11700
H983        H  0.37976778  0.06475458  0.90916239     0.11500
H984        H  0.33937281  0.05152656  0.87746907     0.08000
C985        C  0.26744412  0.99087036  0.87333557    -0.11100
C986        C  0.29689731  0.98873064  0.86513068     0.06100
C987        C  0.30424211  0.99325009  0.83554906    -0.09900
C988        C  0.28292085  0.00090078  0.81508241    -0.11500
C989        C  0.25384396  0.00392828  0.82373395    -0.01300
C990        C  0.24617436  0.99807869  0.85280029    -0.10400
C991        C  0.31960110  0.98065948  0.88703134     0.06100
H992        H  0.32650423  0.99110831  0.82819594     0.08000
H993        H  0.28930302  0.00586544  0.79283818     0.11500
H994        H  0.22390488  0.00094089  0.85998483     0.11700
H995        H  0.26082329  0.98803187  0.89585616     0.08000
C996        C  0.31301014  0.96112146  0.90961760    -0.11100
C997        C  0.33499871  0.94957102  0.92701089    -0.10400
C998        C  0.36461195  0.95619273  0.92154449    -0.01300
C999        C  0.37022891  0.98029278  0.90334877    -0.11500
C1000       C  0.34832085  0.99115534  0.88502168    -0.09900
H1001       H  0.29114830  0.95301861  0.91273231     0.08000
H1002       H  0.32847435  0.93396498  0.94341737     0.11700
H1003       H  0.39235734  0.98764538  0.90005668     0.11500
H1004       H  0.35436368  0.00654132  0.86824805     0.08000
C1005       C  0.01076261  0.68430650  0.22689903    -0.11100
C1006       C  0.01278597  0.68879769  0.19649883     0.06100
C1007       C  0.01096233  0.71737213  0.18569213    -0.09900
C1008       C  0.00571849  0.74067118  0.20463667    -0.11500
C1009       C  0.00188370  0.73584275  0.23469418    -0.01300
C1010       C  0.00541047  0.70765345  0.24583294    -0.10400
C1011       C  0.01854460  0.66409723  0.17626797     0.06100
H1012       H  0.01324552  0.72169293  0.16253340     0.08000
H1013       H  0.00261091  0.76224500  0.19561120     0.11500
H1014       H  0.00182088  0.70341516  0.26884784     0.11700
H1015       H  0.01211701  0.66257465  0.23593746     0.08000
C1016       C  0.03895557  0.64301136  0.18399328    -0.11100
C1017       C  0.04952952  0.62355747  0.16326191    -0.10400
C1018       C  0.03969407  0.62396006  0.13376503    -0.01300
C1019       C  0.01564653  0.64225997  0.12763473    -0.11500
C1020       C  0.00610366  0.66281755  0.14823189    -0.09900
H1021       H  0.04906715  0.64333842  0.20536955     0.08000
H1022       H  0.06779316  0.61090881  0.17053385     0.11700
H1023       H  0.00731665  0.64430436  0.10567846     0.11500
H1024       H  0.99018981  0.67886307  0.14159690     0.08000
C1025       C  0.84129333  0.65928147  0.05436340    -0.11100
C1026       C  0.81357312  0.65600044  0.06713930     0.06100
C1027       C  0.80908440  0.63230598  0.08589459    -0.09900
C1028       C  0.83237869  0.61508608  0.09483506    -0.11500
C1029       C  0.86125130  0.62219595  0.08674232    -0.01300
C1030       C  0.86459688  0.64140858  0.06292973    -0.10400
C1031       C  0.78974094  0.67750454  0.06193921     0.06100
H1032       H  0.78794401  0.62811202  0.09538755     0.08000
H1033       H  0.82765285  0.59777723  0.11011852     0.11500
H1034       H  0.88604972  0.64589379  0.05426762     0.11700
H1035       H  0.84526697  0.67638037  0.03858798     0.08000
C1036       C  0.76047888  0.66852834  0.06069296    -0.11100
C1037       C  0.73828681  0.68859304  0.05506538    -0.10400
C1038       C  0.74483904  0.71799458  0.05024849    -0.01300
C1039       C  0.77369927  0.72741050  0.05318446    -0.11500
C1040       C  0.79593609  0.70738210  0.05897431    -0.09900
H1041       H  0.75476206  0.64576471  0.06258822     0.08000
H1042       H  0.71626688  0.68078639  0.05211030     0.11700
H1043       H  0.77925549  0.74993100  0.04896712     0.11500
H1044       H  0.81806085  0.71523927  0.06054444     0.08000
C1045       C  0.93131551  0.69436331  0.21013213    -0.11100
C1046       C  0.92938123  0.70399120  0.18102406     0.06100
C1047       C  0.93135564  0.73405297  0.17531610    -0.09900
C1048       C  0.93687580  0.75377812  0.19795409    -0.11500
C1049       C  0.94069353  0.74378323  0.22662657    -0.01300
C1050       C  0.93678589  0.71410556  0.23272860    -0.10400
C1051       C  0.92420700  0.68285215  0.15692217     0.06100
H1052       H  0.92997097  0.74220503  0.15316015     0.08000
H1053       H  0.94046007  0.77649754  0.19276076     0.11500
H1054       H  0.94003620  0.70597689  0.25471375     0.11700
H1055       H  0.92909730  0.67149562  0.21539143     0.08000
C1056       C  0.93709595  0.65509345  0.15690513    -0.11100
C1057       C  0.92897744  0.63406940  0.13624063    -0.10400
C1058       C  0.90590645  0.63936812  0.11656297    -0.01300
C1059       C  0.89519526  0.66837600  0.11519231    -0.11500
C1060       C  0.90444809  0.68964215  0.13478434    -0.09900
H1061       H  0.95266418  0.64921734  0.17362135     0.08000
H1062       H  0.93797191  0.61236723  0.13824203     0.11700
H1063       H  0.87695169  0.67468588  0.10204907     0.11500
H1064       H  0.89384557  0.71069618  0.13429584     0.08000
C1065       C  0.85480303  0.45099609  0.86304035    -0.11100
C1066       C  0.83323785  0.47104187  0.87031743     0.06100
C1067       C  0.83450952  0.48471778  0.89782091    -0.09900
C1068       C  0.85564133  0.47655270  0.91845455    -0.11500
C1069       C  0.87481944  0.45305212  0.91274898    -0.01300
C1070       C  0.87497679  0.44209188  0.88364911    -0.10400
C1071       C  0.80845402  0.47525050  0.84994768     0.06100
H1072       H  0.81829073  0.50069830  0.90392619     0.08000
H1073       H  0.85393265  0.48575530  0.94012170     0.11500
H1074       H  0.88819646  0.42416986  0.87660785     0.11700
H1075       H  0.85454256  0.43990134  0.84213431     0.08000
C1076       C  0.81309818  0.47545515  0.81952034    -0.11100
C1077       C  0.78985099  0.47881765  0.80026245    -0.10400
C1078       C  0.76159170  0.48262822  0.81101517    -0.01300
C1079       C  0.75652857  0.48068499  0.84119859    -0.11500
C1080       C  0.77979976  0.47705865  0.86054466    -0.09900
H1081       H  0.83486525  0.47424447  0.81058442     0.08000
H1082       H  0.79423036  0.48110920  0.77709498     0.11700
H1083       H  0.73489455  0.48421989  0.84987168     0.11500
H1084       H  0.77542791  0.47616592  0.88378961     0.08000
C1085       C  0.00956317  0.65101385  0.88489636    -0.11100
C1086       C  0.02307272  0.67834394  0.88183259     0.06100
C1087       C  0.04564312  0.68559622  0.90083707    -0.09900
C1088       C  0.05662630  0.66523020  0.92027892    -0.11500
C1089       C  0.04516050  0.63657347  0.92194843    -0.01300
C1090       C  0.01986449  0.63070449  0.90541566    -0.10400
C1091       C  0.01576066  0.69865975  0.85765927     0.06100
H1092       H  0.05663131  0.70636972  0.89906590     0.08000
H1093       H  0.07583765  0.67202346  0.93184275     0.11500
H1094       H  0.01023891  0.60920510  0.90584288     0.11700
H1095       H  0.99186770  0.64487978  0.87058544     0.08000
C1096       C  0.01124696  0.68818074  0.82915337    -0.11100
C1097       C  0.00527888  0.70749603  0.80629699    -0.10400
C1098       C  0.00331426  0.73756253  0.81162340    -0.01300
C1099       C  0.00930722  0.74819926  0.83966511    -0.11500
C1100       C  0.01536441  0.72894438  0.86249586    -0.09900
H1101       H  0.01213624  0.66506627  0.82457494     0.08000
H1102       H  0.00029513  0.69887848  0.78482645     0.11700
H1103       H  0.00718802  0.77122399  0.84433866     0.11500
H1104       H  0.01873813  0.73772678  0.88420160     0.08000
C1105       C  0.84444551  0.67951100  0.94997748    -0.11100
C1106       C  0.82499126  0.67047422  0.97165175     0.06100
C1107       C  0.83073350  0.64426201  0.98647269    -0.09900
C1108       C  0.85411600  0.62639781  0.97810725    -0.11500
C1109       C  0.87099068  0.63325597  0.95316257    -0.01300
C1110       C  0.86685758  0.66129102  0.94071848    -0.10400
C1111       C  0.79782199  0.68739280  0.97688617     0.06100
H1112       H  0.81622809  0.63680133  0.00353289     0.08000
H1113       H  0.85625758  0.60533664  0.98847527     0.11500
H1114       H  0.87850294  0.66853695  0.92160779     0.11700
H1115       H  0.84078101  0.69958689  0.93813796     0.08000
C1116       C  0.79824525  0.71802405  0.97692881    -0.11100
C1117       C  0.77283729  0.73391041  0.98224765    -0.10400
C1118       C  0.74650484  0.71954996  0.98775382    -0.01300
C1119       C  0.74556828  0.68906344  0.98593738    -0.11500
C1120       C  0.77101443  0.67311178  0.98064901    -0.09900
H1121       H  0.81847957  0.72972233  0.97413258     0.08000
H1122       H  0.77416020  0.75736675  0.98432254     0.11700
H1123       H  0.72556080  0.67756723  0.99066438     0.11500
H1124       H  0.76980771  0.64958199  0.98000642     0.08000
C1125       C  0.90249116  0.64054585  0.85908620    -0.11100
C1126       C  0.92358695  0.66125882  0.86597841     0.06100
C1127       C  0.93647618  0.66025321  0.89383217    -0.09900
C1128       C  0.92678102  0.64043821  0.91504605    -0.11500
C1129       C  0.90314307  0.62151965  0.90939889    -0.01300
C1130       C  0.89231844  0.62129378  0.88023339    -0.10400
C1131       C  0.92972992  0.68541940  0.84515960     0.06100
H1132       H  0.95309188  0.67584786  0.89977806     0.08000
H1133       H  0.93553789  0.64268755  0.93680812     0.11500
H1134       H  0.87386604  0.60854693  0.87356418     0.11700
H1135       H  0.89186498  0.64079152  0.83796491     0.08000
C1136       C  0.93076557  0.68050354  0.81474519    -0.11100
C1137       C  0.93661549  0.70341286  0.79540312    -0.10400
C1138       C  0.94162146  0.73156784  0.80614266    -0.01300
C1139       C  0.93890116  0.73684090  0.83623418    -0.11500
C1140       C  0.93313558  0.71402021  0.85554974    -0.09900
H1141       H  0.92822954  0.65875516  0.80598332     0.08000
H1142       H  0.93933059  0.69879519  0.77233239     0.11700
H1143       H  0.94315351  0.75835414  0.84494823     0.11500
H1144       H  0.93165561  0.71875221  0.87869464     0.08000
C1145       C  0.80903598  0.55416081  0.82861766    -0.11100
C1146       C  0.79889882  0.55786112  0.85741247     0.06100
C1147       C  0.76875928  0.55612153  0.86262140    -0.09900
C1148       C  0.74943313  0.54973778  0.83991422    -0.11500
C1149       C  0.75975042  0.54470860  0.81150361    -0.01300
C1150       C  0.78961693  0.54776150  0.80585839    -0.10400
C1151       C  0.81922793  0.56573873  0.88157327     0.06100
H1152       H  0.76017110  0.55873920  0.88451616     0.08000
H1153       H  0.72662156  0.54663524  0.84491967     0.11500
H1154       H  0.79809527  0.54329685  0.78421453     0.11700
H1155       H  0.83199569  0.55598199  0.82374128     0.08000
C1156       C  0.84711295  0.55330869  0.88439699    -0.11100
C1157       C  0.86702700  0.56398755  0.90524475    -0.10400
C1158       C  0.86030496  0.58886135  0.92225784    -0.01300
C1159       C  0.83121341  0.59927520  0.92058598    -0.11500
C1160       C  0.81122769  0.58774997  0.90101317    -0.09900
H1161       H  0.85392548  0.53609841  0.86973421     0.08000
H1162       H  0.88886607  0.55519462  0.90544060     0.11700
H1163       H  0.82372215  0.61829308  0.93204969     0.11500
H1164       H  0.79008058  0.59801817  0.89944186     0.08000
C1165       C  0.14080848  0.56357460  0.82072675    -0.11100
C1166       C  0.14418419  0.56630177  0.85118666     0.06100
C1167       C  0.17248783  0.56546183  0.86290718    -0.09900
C1168       C  0.19658819  0.56061696  0.84479215    -0.11500
C1169       C  0.19288288  0.55663734  0.81462440    -0.01300
C1170       C  0.16492136  0.55900283  0.80265089    -0.10400
C1171       C  0.11848712  0.57141324  0.87045863     0.06100
H1172       H  0.17601258  0.56820828  0.88614287     0.08000
H1173       H  0.21791212  0.55819783  0.85451485     0.11500
H1174       H  0.16153333  0.55511746  0.77953759     0.11700
H1175       H  0.11940096  0.56386988  0.81092769     0.08000
C1176       C  0.09626814  0.59012532  0.86139596    -0.11100
C1177       C  0.07548450  0.60013007  0.88121231    -0.10400
C1178       C  0.07582555  0.59143623  0.91103496    -0.01300
C1179       C  0.09534633  0.56875617  0.91848175    -0.11500
C1180       C  0.11706418  0.55990046  0.89886038    -0.09900
H1181       H  0.09649569  0.59944008  0.83965898     0.08000
H1182       H  0.06155916  0.61708455  0.87305372     0.11700
H1183       H  0.09730624  0.56140403  0.94082192     0.11500
H1184       H  0.13408965  0.54584066  0.90674552     0.08000
C1185       C  0.12257925  0.48560509  0.90000994    -0.11100
C1186       C  0.12352043  0.47545913  0.87100346     0.06100
C1187       C  0.10049120  0.45829389  0.86112578    -0.09900
C1188       C  0.07845377  0.44965257  0.87998920    -0.11500
C1189       C  0.07760321  0.45845870  0.90980873    -0.01300
C1190       C  0.09958207  0.47810597  0.91875178    -0.10400
C1191       C  0.14884203  0.48114580  0.85131517     0.06100
H1192       H  0.10075257  0.44896324  0.83938989     0.08000
H1193       H  0.06493862  0.43279161  0.87118199     0.11500
H1194       H  0.10130978  0.48464769  0.94138837     0.11700
H1195       H  0.14035022  0.49816897  0.90882013     0.08000
C1196       C  0.17723532  0.48392964  0.86250075    -0.11100
C1197       C  0.20048624  0.49076783  0.84395525    -0.10400
C1198       C  0.19585686  0.49455744  0.81388933    -0.01300
C1199       C  0.16814872  0.48962975  0.80233397    -0.11500
C1200       C  0.14482365  0.48343943  0.82083558    -0.09900
H1201       H  0.18147632  0.48150164  0.88563333     0.08000
H1202       H  0.22169602  0.49501342  0.85329607     0.11700
H1203       H  0.16405657  0.49322795  0.77929150     0.11500
H1204       H  0.12339105  0.48197485  0.81124248     0.08000
C1205       C  0.83125552  0.54418099  0.22594566    -0.11100
C1206       C  0.82457651  0.56656862  0.20614111     0.06100
C1207       C  0.79656384  0.57908542  0.20712750    -0.09900
C1208       C  0.77577013  0.56949753  0.22713338    -0.11500
C1209       C  0.78217098  0.54675825  0.24635868    -0.01300
C1210       C  0.81020383  0.53438159  0.24592458    -0.10400
C1211       C  0.84599373  0.57740909  0.18416884     0.06100
H1212       H  0.79031055  0.59581135  0.19169092     0.08000
H1213       H  0.75407247  0.57865271  0.22642105     0.11500
H1214       H  0.81533878  0.51633227  0.26024088     0.11700
H1215       H  0.85255279  0.53414010  0.22580745     0.08000
C1216       C  0.84644962  0.60714684  0.17804803    -0.11100
C1217       C  0.86102262  0.61761426  0.15378276    -0.10400
C1218       C  0.87645443  0.59896863  0.13447730    -0.01300
C1219       C  0.87884972  0.56939930  0.14252549    -0.11500
C1220       C  0.86376282  0.55876596  0.16727818    -0.09900
H1221       H  0.83416126  0.62238972  0.19126847     0.08000
H1222       H  0.85846096  0.64051441  0.14905720     0.11700
H1223       H  0.89119997  0.55426820  0.12935133     0.11500
H1224       H  0.86497798  0.53583834  0.17242470     0.08000
C1225       C  0.77668460  0.49601335  0.17576693    -0.11100
C1226       C  0.79675416  0.47342791  0.17994095     0.06100
C1227       C  0.79763632  0.45900581  0.20708905    -0.09900
C1228       C  0.77970868  0.46781619  0.23005887    -0.11500
C1229       C  0.76059031  0.49117563  0.22627565    -0.01300
C1230       C  0.75847252  0.50461434  0.19872588    -0.10400
C1231       C  0.81739424  0.46481432  0.15666192     0.06100
H1232       H  0.81315128  0.44168140  0.21093323     0.08000
H1233       H  0.78200567  0.45760136  0.25127462     0.11500
H1234       H  0.74388750  0.52285679  0.19556579     0.11700
H1235       H  0.77547391  0.50725415  0.15499749     0.08000
C1236       C  0.82150827  0.43533383  0.15107395    -0.11100
C1237       C  0.84432283  0.42612138  0.13364645    -0.10400
C1238       C  0.86400349  0.44596999  0.12029159    -0.01300
C1239       C  0.85899500  0.47595227  0.12527220    -0.11500
C1240       C  0.83547549  0.48518952  0.14270678    -0.09900
H1241       H  0.80783406  0.41914836  0.16146053     0.08000
H1242       H  0.84745639  0.40287854  0.13226365     0.11700
H1243       H  0.87386827  0.49237951  0.11761530     0.11500
H1244       H  0.83235391  0.50816883  0.14668585     0.08000
C1245       C  0.01550660  0.17449593  0.63699845    -0.11100
C1246       C  0.03316138  0.18633329  0.65922812     0.06100
C1247       C  0.06028354  0.17398717  0.66451730    -0.09900
C1248       C  0.06933500  0.14986399  0.64892183    -0.11500
C1249       C  0.05140496  0.13629546  0.62769471    -0.01300
C1250       C  0.02432755  0.14932651  0.62158017    -0.10400
C1251       C  0.02360792  0.21052156  0.67839590     0.06100
H1252       H  0.07457373  0.18295002  0.68106003     0.08000
H1253       H  0.09044069  0.14102723  0.65434358     0.11500
H1254       H  0.01021873  0.14044805  0.60490976     0.11700
H1255       H  0.99475881  0.18438086  0.63202115     0.08000
C1256       C  0.01371638  0.23700849  0.66684645    -0.11100
C1257       C  0.00567873  0.25977381  0.68563049    -0.10400
C1258       C  0.00686477  0.25607354  0.71614682    -0.01300
C1259       C  0.01782648  0.23004801  0.72757944    -0.11500
C1260       C  0.02611211  0.20750607  0.70890830    -0.09900
H1261       H  0.01208993  0.23998988  0.64341968     0.08000
H1262       H  0.99697261  0.27967067  0.67644863     0.11700
H1263       H  0.01827770  0.22652672  0.75099670     0.11500
H1264       H  0.03374851  0.18727853  0.71834305     0.08000
C1265       C  0.93834336  0.20382191  0.70157782    -0.11100
C1266       C  0.93225693  0.21222984  0.67264308     0.06100
C1267       C  0.93086048  0.24217697  0.66610879    -0.09900
C1268       C  0.93691867  0.26306375  0.68763829    -0.11500
C1269       C  0.94457412  0.25437331  0.71600776    -0.01300
C1270       C  0.94442132  0.22465882  0.72298680    -0.10400
C1271       C  0.92631118  0.18968650  0.64991041     0.06100
H1272       H  0.92627990  0.24945463  0.64408528     0.08000
H1273       H  0.93763329  0.28586405  0.68166563     0.11500
H1274       H  0.95076240  0.21752835  0.74463659     0.11700
H1275       H  0.93878129  0.18104926  0.70763908     0.08000
C1276       C  0.94124846  0.16296684  0.64981938    -0.11100
C1277       C  0.93182819  0.13978296  0.63228308    -0.10400
C1278       C  0.90609413  0.14215371  0.61549176    -0.01300
C1279       C  0.89401793  0.17048341  0.61260886    -0.11500
C1280       C  0.90385155  0.19368195  0.62967934    -0.09900
H1281       H  0.95921582  0.15935319  0.66465795     0.08000
H1282       H  0.94226734  0.11897621  0.63547385     0.11700
H1283       H  0.87506436  0.17481871  0.59947370     0.11500
H1284       H  0.89210571  0.21409067  0.62872065     0.08000
C1285       C  0.93601737  0.36923581  0.82622372    -0.11100
C1286       C  0.93081500  0.35476081  0.85284004     0.06100
C1287       C  0.92970121  0.32411512  0.85278150    -0.09900
C1288       C  0.93536387  0.30839594  0.82716579    -0.11500
C1289       C  0.94266881  0.32298388  0.80126005    -0.01300
C1290       C  0.94196987  0.35349470  0.80073682    -0.10400
C1291       C  0.92570170  0.37164986  0.88023551     0.06100
H1292       H  0.92585710  0.31220066  0.87281936     0.08000
H1293       H  0.93653639  0.28486449  0.82816820     0.11500
H1294       H  0.94800959  0.36511906  0.78105088     0.11700
H1295       H  0.93609951  0.39277346  0.82516233     0.08000
C1296       C  0.94009094  0.39811716  0.88557272    -0.11100
C1297       C  0.93161010  0.41647225  0.90856939    -0.10400
C1298       C  0.90675588  0.40980358  0.92540476    -0.01300
C1299       C  0.89488518  0.38139081  0.92205777    -0.11500
C1300       C  0.90436247  0.36270750  0.90003402    -0.09900
H1301       H  0.95606371  0.40587758  0.87034928     0.08000
H1302       H  0.94136598  0.43787720  0.90989803     0.11700
H1303       H  0.87599767  0.37410564  0.93391021     0.11500
H1304       H  0.89277255  0.34245369  0.89681261     0.08000
C1305       C  0.01872458  0.36985969  0.82290577    -0.11100
C1306       C  0.01514546  0.35911209  0.85157089     0.06100
C1307       C  0.00854072  0.32940169  0.85516188    -0.09900
C1308       C  0.00388087  0.31151086  0.83086026    -0.11500
C1309       C  0.00489298  0.32304745  0.80247732    -0.01300
C1310       C  0.01343565  0.35205219  0.79861524    -0.10400
C1311       C  0.01887748  0.37873444  0.87740244     0.06100
H1312       H  0.00542992  0.32018786  0.87669544     0.08000
H1313       H  0.99691571  0.28924597  0.83427435     0.11500
H1314       H  0.01406316  0.36143475  0.77690544     0.11700
H1315       H  0.02488504  0.39228002  0.81915735     0.08000
C1316       C  0.01184036  0.40856900  0.87580806    -0.11100
C1317       C  0.02017360  0.42779793  0.89808027    -0.10400
C1318       C  0.03957083  0.41808635  0.91976451    -0.01300
C1319       C  0.04047099  0.38777170  0.92499176    -0.11500
C1320       C  0.03098154  0.36829354  0.90357675    -0.09900
H1321       H  0.00151051  0.41747852  0.85654780     0.08000
H1322       H  0.01651578  0.45088737  0.89499343     0.11700
H1323       H  0.05165543  0.37898773  0.94383470     0.11500
H1324       H  0.03564645  0.34541170  0.90657030     0.08000
C1325       C  0.64110357  0.20854155  0.05578670    -0.11100
C1326       C  0.65033507  0.18132345  0.06626387     0.06100
C1327       C  0.68021025  0.17681403  0.07136813    -0.09900
C1328       C  0.70043860  0.19864677  0.06524057    -0.11500
C1329       C  0.69121879  0.22522656  0.05355528    -0.01300
C1330       C  0.66136725  0.23032472  0.04960605    -0.10400
C1331       C  0.62882783  0.15839366  0.07375495     0.06100
H1332       H  0.68807970  0.15604344  0.07925618     0.08000
H1333       H  0.72341115  0.19410236  0.06771813     0.11500
H1334       H  0.65394433  0.25063543  0.04017778     0.11700
H1335       H  0.61825635  0.21299712  0.05229263     0.08000
C1336       C  0.63258949  0.14241373  0.09941835    -0.11100
C1337       C  0.61077899  0.12423150  0.10959827    -0.10400
C1338       C  0.58447822  0.12012090  0.09386867    -0.01300
C1339       C  0.58187158  0.13456951  0.06671344    -0.11500
C1340       C  0.60343742  0.15396472  0.05718649    -0.09900
H1341       H  0.65136604  0.14593260  0.11324314     0.08000
H1342       H  0.61392432  0.11602574  0.13143740     0.11700
H1343       H  0.56188571  0.13321306  0.05431309     0.11500
H1344       H  0.59960332  0.16647361  0.03754118     0.08000
C1345       C  0.67625896  0.17577541  0.98513315    -0.11100
C1346       C  0.65052219  0.18684803  0.97301953     0.06100
C1347       C  0.64798631  0.21708992  0.96859859    -0.09900
C1348       C  0.67010238  0.23598942  0.97741301    -0.11500
C1349       C  0.69513789  0.22500799  0.99083843    -0.01300
C1350       C  0.69852421  0.19469991  0.99367066    -0.10400
C1351       C  0.62648529  0.16720292  0.96416511     0.06100
H1352       H  0.62832989  0.22623130  0.95936568     0.08000
H1353       H  0.66681585  0.25927261  0.97560943     0.11500
H1354       H  0.71764493  0.18586558  0.00424622     0.11700
H1355       H  0.67898802  0.15257425  0.98831221     0.08000
C1356       C  0.61641746  0.14449046  0.98220543    -0.11100
C1357       C  0.59245951  0.12733773  0.97380014    -0.10400
C1358       C  0.57896785  0.13173915  0.94644934    -0.01300
C1359       C  0.59069916  0.15367329  0.92810379    -0.11500
C1360       C  0.61333612  0.17143473  0.93705478    -0.09900
H1361       H  0.62708703  0.14005836  0.00278081     0.08000
H1362       H  0.58545344  0.11001921  0.98817103     0.11700
H1363       H  0.58229255  0.15721540  0.90632383     0.11500
H1364       H  0.62115842  0.18808552  0.92225235     0.08000
C1365       C  0.83656559  0.39134452  0.05968497    -0.11100
C1366       C  0.83853400  0.36311782  0.07148793     0.06100
C1367       C  0.86295070  0.35612947  0.08818404    -0.09900
C1368       C  0.88303682  0.37738644  0.09586929    -0.11500
C1369       C  0.87973298  0.40686738  0.08697181    -0.01300
C1370       C  0.85752118  0.41258749  0.06637865    -0.10400
C1371       C  0.81485103  0.34125044  0.06791151     0.06100
H1372       H  0.86524640  0.33473329  0.09783173     0.08000
H1373       H  0.89832041  0.37033693  0.11202974     0.11500
H1374       H  0.85405636  0.43457501  0.05859526     0.11700
H1375       H  0.81837864  0.39727009  0.04590296     0.08000
C1376       C  0.82144200  0.31143414  0.06499040    -0.11100
C1377       C  0.79940938  0.29102705  0.06041737    -0.10400
C1378       C  0.77040664  0.30002639  0.05810441    -0.01300
C1379       C  0.76342273  0.32932474  0.06325387    -0.11500
C1380       C  0.78545983  0.34978303  0.06812489    -0.09900
H1381       H  0.84375909  0.30398297  0.06454316     0.08000
H1382       H  0.80526821  0.26864622  0.05577516     0.11700
H1383       H  0.74117589  0.33673658  0.06104648     0.11500
H1384       H  0.77953671  0.37239102  0.07118115     0.08000
C1385       C  0.81617567  0.32556858  0.98693260    -0.11100
C1386       C  0.80471549  0.35389404  0.98522249     0.06100
C1387       C  0.77449841  0.35779965  0.98784651    -0.09900
C1388       C  0.75627052  0.33408467  0.99314453    -0.11500
C1389       C  0.76787688  0.30603014  0.99600364    -0.01300
C1390       C  0.79785627  0.30179016  0.99213850    -0.10400
C1391       C  0.82379908  0.37903665  0.97840315     0.06100
H1392       H  0.76505514  0.37936386  0.98663074     0.08000
H1393       H  0.73331660  0.33784960  0.99688752     0.11500
H1394       H  0.80724164  0.28034067  0.99491790     0.11700
H1395       H  0.83928624  0.32185303  0.98437846     0.08000
C1396       C  0.85122494  0.38261202  0.99148234    -0.11100
C1397       C  0.87034970  0.40438304  0.98173024    -0.10400
C1398       C  0.86337986  0.42156022  0.95705802    -0.01300
C1399       C  0.83472053  0.41894892  0.94576869    -0.11500
C1400       C  0.81531974  0.39846144  0.95658044    -0.09900
H1401       H  0.85839540  0.36774068  0.00834341     0.08000
H1402       H  0.89197134  0.40521090  0.99101128     0.11700
H1403       H  0.82744597  0.43019960  0.92648814     0.11500
H1404       H  0.79446779  0.39609269  0.94584288     0.08000
C1405       C  0.09169614  0.68929270  0.09565718    -0.11100
C1406       C  0.11185357  0.68351046  0.07367440     0.06100
C1407       C  0.11071293  0.65653125  0.05915920    -0.09900
C1408       C  0.09012433  0.63541681  0.06714429    -0.11500
C1409       C  0.07213153  0.63969592  0.09185424    -0.01300
C1410       C  0.07277332  0.66773659  0.10509469    -0.10400
C1411       C  0.13533564  0.70483452  0.06802903     0.06100
H1412       H  0.12650748  0.65133950  0.04239939     0.08000
H1413       H  0.09097388  0.61435778  0.05653365     0.11500
H1414       H  0.06103028  0.67300746  0.12474019     0.11700
H1415       H  0.09235695  0.70969341  0.10755213     0.08000
C1416       C  0.12914827  0.73479554  0.06606104    -0.11100
C1417       C  0.15130833  0.75479765  0.06018785    -0.10400
C1418       C  0.17990891  0.74507800  0.05624670    -0.01300
C1419       C  0.18644706  0.71551821  0.06047790    -0.11500
C1420       C  0.16431690  0.69551090  0.06604341    -0.09900
H1421       H  0.10698524  0.74256989  0.06777987     0.08000
H1422       H  0.14582023  0.77742483  0.05646401     0.11700
H1423       H  0.20842529  0.70765387  0.05723719     0.11500
H1424       H  0.16978346  0.67269022  0.06831972     0.08000
C1425       C  0.18077355  0.68401282  0.98443611    -0.11100
C1426       C  0.15066099  0.68915352  0.98218532     0.06100
C1427       C  0.14031174  0.71775382  0.98506435    -0.09900
C1428       C  0.15948352  0.74052847  0.99117405    -0.11500
C1429       C  0.18928342  0.73508977  0.99510861    -0.01300
C1430       C  0.19993408  0.70680529  0.99090276    -0.10400
C1431       C  0.13035062  0.66515547  0.97475707     0.06100
H1432       H  0.11736594  0.72247767  0.98271878     0.08000
H1433       H  0.15083423  0.76219003  0.99470422     0.11500
H1434       H  0.22271668  0.70206463  0.99450509     0.11700
H1435       H  0.18935434  0.66217295  0.98213659     0.08000
C1436       C  0.13736049  0.64647474  0.95179033    -0.11100
C1437       C  0.11681079  0.62724072  0.94077722    -0.10400
C1438       C  0.08865860  0.62449713  0.95342821    -0.01300
C1439       C  0.08293334  0.64138352  0.97864646    -0.11500
C1440       C  0.10301565  0.66232410  0.98829544    -0.09900
H1441       H  0.15792661  0.64861889  0.94042351     0.08000
H1442       H  0.12281718  0.61687849  0.92053145     0.11700
H1443       H  0.06160868  0.64094829  0.98865931     0.11500
H1444       H  0.09668457  0.67715234  0.00554733     0.08000
C1445       C  0.28867459  0.84407687  0.08637353    -0.11100
C1446       C  0.28972344  0.87117362  0.07189824     0.06100
C1447       C  0.27005897  0.87659230  0.04911546    -0.09900
C1448       C  0.25067486  0.85487668  0.04021026    -0.11500
C1449       C  0.25096687  0.82735470  0.05369310    -0.01300
C1450       C  0.26934042  0.82247973  0.07749059    -0.10400
C1451       C  0.31222364  0.89277274  0.08028669     0.06100
H1452       H  0.27013640  0.89728629  0.03780117     0.08000
H1453       H  0.23662875  0.85889121  0.02164934     0.11500
H1454       H  0.27023533  0.80125705  0.08776859     0.11700
H1455       H  0.30388303  0.83893447  0.10367212     0.08000
C1456       C  0.31960586  0.89541041  0.10972153    -0.11100
C1457       C  0.34427922  0.91045227  0.11793000    -0.10400
C1458       C  0.36241722  0.92446862  0.09717905    -0.01300
C1459       C  0.35352788  0.92402273  0.06766306    -0.11500
C1460       C  0.32852831  0.90834095  0.05935783    -0.09900
H1461       H  0.30704053  0.88452787  0.12650921     0.08000
H1462       H  0.35008083  0.90961119  0.14079499     0.11700
H1463       H  0.36643935  0.93434484  0.05084408     0.11500
H1464       H  0.32279069  0.90719313  0.03646054     0.08000
C1465       C  0.34467085  0.86672703  0.93736194    -0.11100
C1466       C  0.34052798  0.86291736  0.96734023     0.06100
C1467       C  0.35671138  0.88022735  0.98690627    -0.09900
C1468       C  0.37432654  0.90309202  0.97650858    -0.11500
C1469       C  0.37633270  0.90865560  0.94622330    -0.01300
C1470       C  0.36205679  0.88908007  0.92701617    -0.10400
C1471       C  0.31716946  0.84294371  0.97740777     0.06100
H1472       H  0.35453729  0.87706622  0.01022236     0.08000
H1473       H  0.38485293  0.91717581  0.99222019     0.11500
H1474       H  0.36257807  0.89231012  0.90360774     0.11700
H1475       H  0.33323419  0.85322337  0.92171857     0.08000
C1476       C  0.29008205  0.84293199  0.96297175    -0.11100
C1477       C  0.26734187  0.82524641  0.97263416    -0.10400
C1478       C  0.27114524  0.80731441  0.99701986    -0.01300
C1479       C  0.29848879  0.80635660  0.01081317    -0.11500
C1480       C  0.32123629  0.82424375  0.00128653    -0.09900
H1481       H  0.28610466  0.85746777  0.94477768     0.08000
H1482       H  0.24632415  0.82672344  0.96207577     0.11700
H1483       H  0.30176258  0.79267751  0.02980588     0.11500
H1484       H  0.34185501  0.82363873  0.01267304     0.08000
C1485       C  0.11273249  0.49223693  0.15156961    -0.11100
C1486       C  0.11139625  0.47953823  0.17951648     0.06100
C1487       C  0.08896575  0.46001516  0.18545184    -0.09900
C1488       C  0.07071466  0.45041753  0.16325840    -0.11500
C1489       C  0.07364296  0.46050402  0.13400005    -0.01300
C1490       C  0.09311896  0.48397882  0.12953895    -0.10400
C1491       C  0.13431800  0.48453169  0.20189545     0.06100
H1492       H  0.08723455  0.44976878  0.20670658     0.08000
H1493       H  0.05703989  0.43262841  0.16952357     0.11500
H1494       H  0.09658680  0.49266173  0.10784697     0.11700
H1495       H  0.12968468  0.50773985  0.14638533     0.08000
C1496       C  0.16377908  0.48559625  0.19379122    -0.11100
C1497       C  0.18526749  0.49076105  0.21477607    -0.10400
C1498       C  0.17768560  0.49516267  0.24418965    -0.01300
C1499       C  0.14859320  0.49197500  0.25270860    -0.11500
C1500       C  0.12707016  0.48686388  0.23173946    -0.09900
H1501       H  0.17016077  0.48303796  0.17114027     0.08000
H1502       H  0.20757585  0.49362308  0.20774361     0.11700
H1503       H  0.14224332  0.49602544  0.27516002     0.11500
H1504       H  0.10459656  0.48613182  0.23874066     0.08000
C1505       C  0.13368961  0.59666301  0.14421117    -0.11100
C1506       C  0.12627143  0.57412103  0.16321927     0.06100
C1507       C  0.09933652  0.56008884  0.15930142    -0.09900
C1508       C  0.07975924  0.56939791  0.13757569    -0.11500
C1509       C  0.08533903  0.59501129  0.12137026    -0.01300
C1510       C  0.11363143  0.60724786  0.12410674    -0.10400
C1511       C  0.14575671  0.56751212  0.18838120     0.06100
H1512       H  0.09279011  0.54284718  0.17398545     0.08000
H1513       H  0.05854929  0.55924730  0.13652166     0.11500
H1514       H  0.12017969  0.62686914  0.11308517     0.11700
H1515       H  0.15416075  0.60805358  0.14667830     0.08000
C1516       C  0.17612021  0.56605797  0.18457875    -0.11100
C1517       C  0.19451217  0.56061207  0.20837546    -0.10400
C1518       C  0.18295052  0.55665443  0.23647633    -0.01300
C1519       C  0.15280964  0.55964975  0.24058617    -0.11500
C1520       C  0.13437151  0.56475106  0.21676283    -0.09900
H1521       H  0.18556855  0.56820359  0.16299495     0.08000
H1522       H  0.21756579  0.55763990  0.20456895     0.11700
H1523       H  0.14338875  0.55617323  0.26201372     0.11500
H1524       H  0.11118396  0.56642142  0.22051321     0.08000
C1525       C  0.14020982  0.14256507  0.59743996    -0.11100
C1526       C  0.13354732  0.16393531  0.57682408     0.06100
C1527       C  0.10543687  0.16427723  0.56482931    -0.09900
C1528       C  0.08465138  0.14341556  0.57306222    -0.11500
C1529       C  0.09048062  0.12289485  0.59536026    -0.01300
C1530       C  0.11906999  0.12320207  0.60716763    -0.10400
C1531       C  0.15580717  0.18623519  0.56913218     0.06100
H1532       H  0.09914576  0.18131919  0.54986122     0.08000
H1533       H  0.06290410  0.14528143  0.56420530     0.11500
H1534       H  0.12516364  0.11127591  0.62634782     0.11700
H1535       H  0.16124747  0.14236319  0.60807062     0.08000
C1536       C  0.18509214  0.17803389  0.56569996    -0.11100
C1537       C  0.20609579  0.19850609  0.55781839    -0.10400
C1538       C  0.19833118  0.22760478  0.55296008    -0.01300
C1539       C  0.16945755  0.23630413  0.55772580    -0.11500
C1540       C  0.14832793  0.21576552  0.56570704    -0.09900
H1541       H  0.19160717  0.15549133  0.56793259     0.08000
H1542       H  0.22811503  0.19126724  0.55354858     0.11700
H1543       H  0.16296120  0.25856895  0.55349153     0.11500
H1544       H  0.12609383  0.22289197  0.56874327     0.08000
C1545       C  0.14255289  0.13730029  0.44838886    -0.11100
C1546       C  0.13731886  0.15623849  0.47159970     0.06100
C1547       C  0.11034553  0.15490360  0.48597990    -0.09900
C1548       C  0.08843595  0.13591802  0.47632129    -0.11500
C1549       C  0.09232485  0.11923828  0.45064108    -0.01300
C1550       C  0.12053479  0.11954969  0.43779540    -0.10400
C1551       C  0.15923582  0.17884652  0.47863808     0.06100
H1552       H  0.10565312  0.16976718  0.50354626     0.08000
H1553       H  0.06728261  0.13705328  0.48666327     0.11500
H1554       H  0.12569945  0.10845014  0.41773439     0.11700
H1555       H  0.16300904  0.13801766  0.43664189     0.08000
C1556       C  0.18894767  0.17168088  0.48007628    -0.11100
C1557       C  0.20970569  0.19307451  0.48610143    -0.10400
C1558       C  0.20110111  0.22197241  0.49069353    -0.01300
C1559       C  0.17164494  0.22946082  0.48785524    -0.11500
C1560       C  0.15084692  0.20805783  0.48203674    -0.09900
H1561       H  0.19600442  0.14933753  0.47744523     0.08000
H1562       H  0.23222078  0.18679935  0.48899085     0.11700
H1563       H  0.16459757  0.25161232  0.49188657     0.11500
H1564       H  0.12820080  0.21429048  0.48036409     0.08000
C1565       C  0.50213244  0.15359782  0.15493182    -0.11100
C1566       C  0.51771197  0.17969753  0.15929351     0.06100
C1567       C  0.54223380  0.18472763  0.14196840    -0.09900
C1568       C  0.55265655  0.16350041  0.12312896    -0.11500
C1569       C  0.53939188  0.13567297  0.12105234    -0.01300
C1570       C  0.51234742  0.13220898  0.13535697    -0.10400
C1571       C  0.51012160  0.20103272  0.18279351     0.06100
H1572       H  0.55506226  0.20430561  0.14445836     0.08000
H1573       H  0.57280673  0.16889046  0.11243737     0.11500
H1574       H  0.50106785  0.11155602  0.13431521     0.11700
H1575       H  0.48273936  0.14909977  0.16753800     0.08000
C1576       C  0.49853999  0.19169699  0.20970256    -0.11100
C1577       C  0.49211151  0.21184622  0.23179686    -0.10400
C1578       C  0.49728446  0.24166010  0.22749017    -0.01300
C1579       C  0.51011670  0.25090831  0.20137417    -0.11500
C1580       C  0.51608852  0.23094421  0.17914129    -0.09900
H1581       H  0.49420795  0.16888647  0.21365861     0.08000
H1582       H  0.48154518  0.20441937  0.25160501     0.11700
H1583       H  0.51334170  0.27391070  0.19728614     0.11500
H1584       H  0.52437837  0.23927415  0.15865241     0.08000
C1585       C  0.43382390  0.23093399  0.17014010    -0.11100
C1586       C  0.42093650  0.20530905  0.18074360     0.06100
C1587       C  0.41457081  0.20328847  0.21082424    -0.09900
C1588       C  0.42201397  0.22573815  0.23000492    -0.11500
C1589       C  0.43615631  0.25063882  0.21961362    -0.01300
C1590       C  0.44118193  0.25351402  0.18941857    -0.10400
C1591       C  0.41327198  0.18079541  0.16087530     0.06100
H1592       H  0.40488775  0.18374170  0.21976648     0.08000
H1593       H  0.41868077  0.22274962  0.25326419     0.11500
H1594       H  0.45255710  0.27240358  0.18108118     0.11700
H1595       H  0.43859563  0.23330456  0.14707934     0.08000
C1596       C  0.38661747  0.16693940  0.16466243    -0.11100
C1597       C  0.37895069  0.14348254  0.14730921    -0.10400
C1598       C  0.39778359  0.13181478  0.12559817    -0.01300
C1599       C  0.42470562  0.14611061  0.12157592    -0.11500
C1600       C  0.43205054  0.17063298  0.13871678    -0.09900
H1601       H  0.37120178  0.17461680  0.18085050     0.08000
H1602       H  0.35765490  0.13425573  0.15107071     0.11700
H1603       H  0.43984388  0.13948574  0.10491056     0.11500
H1604       H  0.45252208  0.18153903  0.13481316     0.08000
C1605       C  0.02394413  0.31785061  0.17339675    -0.11100
C1606       C  0.02417556  0.34788758  0.17928608     0.06100
C1607       C  0.02160111  0.35749157  0.20834017    -0.09900
C1608       C  0.01729913  0.33745978  0.23087789    -0.11500
C1609       C  0.01517380  0.30765398  0.22457242    -0.01300
C1610       C  0.01951975  0.29788157  0.19590569    -0.10400
C1611       C  0.02899208  0.36900932  0.15542218     0.06100
H1612       H  0.02248179  0.38047937  0.21353445     0.08000
H1613       H  0.01346616  0.34531501  0.25288777     0.11500
H1614       H  0.01721832  0.27500183  0.19064353     0.11700
H1615       H  0.02599925  0.30987769  0.15120318     0.08000
C1616       C  0.05103553  0.36371034  0.13517497    -0.11100
C1617       C  0.06032830  0.38568651  0.11665073    -0.10400
C1618       C  0.04766381  0.41388306  0.11768302    -0.01300
C1619       C  0.02163718  0.41693981  0.13379520    -0.11500
C1620       C  0.01356838  0.39538245  0.15391373    -0.09900
H1621       H  0.06303810  0.34341258  0.13545069     0.08000
H1622       H  0.07924740  0.38051348  0.10379273     0.11700
H1623       H  0.01064253  0.43777492  0.13466356     0.11500
H1624       H  0.99644987  0.40002976  0.16945728     0.08000
C1625       C  0.94235970  0.18393206  0.32176218    -0.11100
C1626       C  0.94470184  0.19303567  0.35108740     0.06100
C1627       C  0.95218859  0.22221021  0.35684548    -0.09900
C1628       C  0.95703347  0.24170116  0.33415776    -0.11500
C1629       C  0.95624468  0.23220330  0.30515349    -0.01300
C1630       C  0.94841379  0.20334803  0.29893505    -0.10400
C1631       C  0.93744877  0.17321287  0.37577068     0.06100
H1632       H  0.95518037  0.22999070  0.37896816     0.08000
H1633       H  0.96389541  0.26368139  0.33928894     0.11500
H1634       H  0.94840750  0.19555181  0.27657958     0.11700
H1635       H  0.93610678  0.16185595  0.31642554     0.08000
C1636       C  0.94187334  0.14292898  0.37450130    -0.11100
C1637       C  0.93166781  0.12476298  0.39694770    -0.10400
C1638       C  0.91508070  0.13616604  0.42044613    -0.01300
C1639       C  0.91286885  0.16692389  0.42209677    -0.11500
C1640       C  0.92386500  0.18480948  0.40047241    -0.09900
H1641       H  0.95214420  0.13305362  0.35565650     0.08000
H1642       H  0.93347270  0.10148541  0.39382546     0.11700
H1643       H  0.89963970  0.17825693  0.43760884     0.11500
H1644       H  0.91901537  0.20781215  0.40206855     0.08000
C1645       C  0.94230866  0.36206511  0.22320436    -0.11100
C1646       C  0.94023450  0.35813037  0.19272890     0.06100
C1647       C  0.94283979  0.32971830  0.18140335    -0.09900
C1648       C  0.94933131  0.30627203  0.19973837    -0.11500
C1649       C  0.95324647  0.31067826  0.22978932    -0.01300
C1650       C  0.94862234  0.33850913  0.24155508    -0.10400
C1651       C  0.93465295  0.38316325  0.17270756     0.06100
H1652       H  0.94044943  0.32562413  0.15822108     0.08000
H1653       H  0.95324855  0.28502716  0.19022181     0.11500
H1654       H  0.95223121  0.34242569  0.26462738     0.11700
H1655       H  0.94053193  0.38353506  0.23278679     0.08000
C1656       C  0.91615298  0.40595602  0.18107470    -0.11100
C1657       C  0.90583924  0.42565419  0.16028699    -0.10400
C1658       C  0.91258124  0.42209549  0.13020941    -0.01300
C1659       C  0.93649852  0.40392389  0.12361205    -0.11500
C1660       C  0.94627236  0.38364416  0.14423968    -0.09900
H1661       H  0.90763722  0.40729327  0.20309722     0.08000
H1662       H  0.89038191  0.44172881  0.16780388     0.11700
H1663       H  0.94387706  0.40122314  0.10133408     0.11500
H1664       H  0.96172771  0.36724556  0.13731722     0.08000
C1665       C  0.03077294  0.22663099  0.35449950    -0.11100
C1666       C  0.02898035  0.19614576  0.35193737     0.06100
C1667       C  0.02417650  0.18398100  0.32410279    -0.09900
C1668       C  0.01887106  0.20188418  0.29995462    -0.11500
C1669       C  0.01833220  0.23224094  0.30319370    -0.01300
C1670       C  0.02569994  0.24449568  0.33028340    -0.10400
C1671       C  0.03268412  0.17707123  0.37800093     0.06100
H1672       H  0.02362745  0.16059960  0.32115812     0.08000
H1673       H  0.01289007  0.19204923  0.27928738     0.11500
H1674       H  0.02475617  0.26786613  0.33334287     0.11700
H1675       H  0.03446824  0.23675565  0.37554861     0.08000
C1676       C  0.05398331  0.18349905  0.39872825    -0.11100
C1677       C  0.06170211  0.16309066  0.41982715    -0.10400
C1678       C  0.04838196  0.13512891  0.42107274    -0.01300
C1679       C  0.02362440  0.13099748  0.40317841    -0.11500
C1680       C  0.01656409  0.15131293  0.38136795    -0.09900
H1681       H  0.06670676  0.20326038  0.39707627     0.08000
H1682       H  0.08048860  0.16885305  0.43256896     0.11700
H1683       H  0.01254085  0.11029690  0.40261112     0.11500
H1684       H  0.99992662  0.14587108  0.36571258     0.08000
C1685       C  0.28833386  0.97635418  0.19098356    -0.11100
C1686       C  0.31728378  0.97444928  0.20077820     0.06100
C1687       C  0.32250142  0.97440677  0.23115572    -0.09900
C1688       C  0.29968417  0.97840872  0.25099243    -0.11500
C1689       C  0.27139330  0.98331722  0.24082047    -0.01300
C1690       C  0.26564905  0.98087315  0.21081428    -0.10400
C1691       C  0.34173193  0.97199746  0.17942672     0.06100
H1692       H  0.34438977  0.97314693  0.23967725     0.08000
H1693       H  0.30460622  0.98086330  0.27402056     0.11500
H1694       H  0.24395541  0.98492923  0.20256012     0.11700
H1695       H  0.28322108  0.97532128  0.16791587     0.08000
C1696       C  0.34024569  0.98486232  0.15159237    -0.11100
C1697       C  0.36074248  0.97810822  0.12992745    -0.10400
C1698       C  0.38223919  0.95659838  0.13484693    -0.01300
C1699       C  0.38594432  0.94747370  0.16432552    -0.11500
C1700       C  0.36600713  0.95493481  0.18599444    -0.09900
H1701       H  0.32209111  0.99859497  0.14585337     0.08000
H1702       H  0.35662953  0.98612493  0.10809902     0.11700
H1703       H  0.40115948  0.93117205  0.17100378     0.11500
H1704       H  0.36820043  0.94464772  0.20715636     0.08000
C1705       C  0.11361438  0.05424315  0.39313611    -0.11100
C1706       C  0.11718919  0.06806425  0.36595547     0.06100
C1707       C  0.09816821  0.09040818  0.35827864    -0.09900
C1708       C  0.07846981  0.10126424  0.37853554    -0.11500
C1709       C  0.07634061  0.08948427  0.40720687    -0.01300
C1710       C  0.09242678  0.06389631  0.41298992    -0.10400
C1711       C  0.14222711  0.06156706  0.34665190     0.06100
H1712       H  0.10049529  0.10162205  0.33757427     0.08000
H1713       H  0.06773809  0.12098666  0.37195057     0.11500
H1714       H  0.09182553  0.05410320  0.43450528     0.11700
H1715       H  0.12832901  0.03708907  0.39972499     0.08000
C1716       C  0.17025269  0.05856025  0.35844130    -0.11100
C1717       C  0.19387863  0.05249951  0.34023232    -0.10400
C1718       C  0.18973874  0.04893334  0.31005724    -0.01300
C1719       C  0.16219816  0.05379068  0.29799109    -0.11500
C1720       C  0.13859029  0.06004842  0.31615093    -0.09900
H1721       H  0.17380643  0.06046626  0.38176869     0.08000
H1722       H  0.21498713  0.04842569  0.34988602     0.11700
H1723       H  0.15855975  0.05049989  0.27482411     0.11500
H1724       H  0.11725748  0.06247849  0.30646713     0.08000
C1725       C  0.28229916  0.05805602  0.18630069    -0.11100
C1726       C  0.31228329  0.05541329  0.19251012     0.06100
C1727       C  0.32046767  0.04964857  0.22164853    -0.09900
C1728       C  0.29956416  0.04559148  0.24336410    -0.11500
C1729       C  0.26995943  0.04549656  0.23634427    -0.01300
C1730       C  0.26137290  0.05272533  0.20790872    -0.10400
C1731       C  0.33472887  0.05995967  0.16912648     0.06100
H1732       H  0.34292773  0.04679329  0.22783417     0.08000
H1733       H  0.30656190  0.03972610  0.26519399     0.11500
H1734       H  0.23856690  0.05256088  0.20204047     0.11700
H1735       H  0.27475507  0.06369690  0.16465765     0.08000
C1736       C  0.32786852  0.05686303  0.13920031    -0.11100
C1737       C  0.34665240  0.06758032  0.11763726    -0.10400
C1738       C  0.37140601  0.08361313  0.12584871    -0.01300
C1739       C  0.38163326  0.07965895  0.15463080    -0.11500
C1740       C  0.36305609  0.06915713  0.17624086    -0.09900
H1741       H  0.30739059  0.04759646  0.13229962     0.08000
H1742       H  0.33959389  0.06719952  0.09505684     0.11700
H1743       H  0.40246887  0.08834889  0.16132941     0.11500
H1744       H  0.37042484  0.07086182  0.19857028     0.08000
C1745       C  0.18321095  0.97866859  0.36925703    -0.11100
C1746       C  0.15329191  0.97669276  0.36307648     0.06100
C1747       C  0.14413558  0.97873861  0.33382574    -0.09900
C1748       C  0.16427537  0.98390246  0.31148286    -0.11500
C1749       C  0.19389850  0.98727836  0.31796271    -0.01300
C1750       C  0.20332343  0.98382820  0.34688941    -0.10400
C1751       C  0.13191041  0.97128785  0.38690702     0.06100
H1752       H  0.12135879  0.97669201  0.32825444     0.08000
H1753       H  0.15655407  0.98708581  0.28934645     0.11500
H1754       H  0.22596523  0.98719873  0.35241793     0.11700
H1755       H  0.19096539  0.97734031  0.39156063     0.08000
C1756       C  0.13837629  0.95099423  0.40869311    -0.11100
C1757       C  0.11717171  0.94213763  0.42850697    -0.10400
C1758       C  0.08865951  0.95409028  0.42805938    -0.01300
C1759       C  0.08353308  0.97713204  0.40822344    -0.11500
C1760       C  0.10440115  0.98465980  0.38715537    -0.09900
H1761       H  0.15914607  0.93987437  0.40883351     0.08000
H1762       H  0.12298921  0.92358267  0.44158148     0.11700
H1763       H  0.06208671  0.98670110  0.40653472     0.11500
H1764       H  0.09866430  0.00031766  0.37045498     0.08000
C1765       C  0.16528766  0.34333411  0.96376526    -0.11100
C1766       C  0.16526867  0.37332794  0.97024267     0.06100
C1767       C  0.18960967  0.38536152  0.98425848    -0.09900
C1768       C  0.21292678  0.36751067  0.99258687    -0.11500
C1769       C  0.21197632  0.33727442  0.98763603    -0.01300
C1770       C  0.18837876  0.32553199  0.97235192    -0.10400
C1771       C  0.13982290  0.39151025  0.96184564     0.06100
H1772       H  0.19039754  0.40841530  0.98914215     0.08000
H1773       H  0.23086980  0.37695439  0.00460743     0.11500
H1774       H  0.18686301  0.30224765  0.96890721     0.11700
H1775       H  0.14676407  0.33335664  0.95314655     0.08000
C1776       C  0.12743690  0.38742963  0.93434672    -0.11100
C1777       C  0.10267835  0.40260052  0.92632825    -0.10400
C1778       C  0.08816572  0.42179736  0.94582628    -0.01300
C1779       C  0.10103043  0.42642749  0.97342973    -0.11500
C1780       C  0.12707035  0.41197039  0.98096746    -0.09900
H1781       H  0.13718587  0.37263844  0.91869057     0.08000
H1782       H  0.09456885  0.39901007  0.90442907     0.11700
H1783       H  0.09173317  0.44178003  0.98874420     0.11500
H1784       H  0.13713239  0.41653069  0.00181381     0.08000
C1785       C  0.32322234  0.22871466  0.06589475    -0.11100
C1786       C  0.30991030  0.20113857  0.06624903     0.06100
C1787       C  0.27976438  0.19939618  0.06124325    -0.09900
C1788       C  0.26365812  0.22436237  0.05458789    -0.11500
C1789       C  0.27736053  0.25153931  0.05258828    -0.01300
C1790       C  0.30706373  0.25368550  0.05920808    -0.10400
C1791       C  0.32722927  0.17433116  0.07212770     0.06100
H1792       H  0.26882933  0.17853526  0.06112094     0.08000
H1793       H  0.24092360  0.22216774  0.04884663     0.11500
H1794       H  0.31810638  0.27441683  0.05730385     0.11700
H1795       H  0.34624427  0.23093319  0.07023976     0.08000
C1796       C  0.35558353  0.17091479  0.06119473    -0.11100
C1797       C  0.37219780  0.14632140  0.06826069    -0.10400
C1798       C  0.36186196  0.12523870  0.08824665    -0.01300
C1799       C  0.33280368  0.12866552  0.09822790    -0.11500
C1800       C  0.31577199  0.15232962  0.08982090    -0.09900
H1801       H  0.36514633  0.18749242  0.04740431     0.08000
H1802       H  0.39442797  0.14545648  0.06054351     0.11700
H1803       H  0.32359349  0.11536790  0.11521056     0.11500
H1804       H  0.29429720  0.15456941  0.09928469     0.08000
C1805       C  0.14105548  0.40972156  0.09774823    -0.11100
C1806       C  0.13861073  0.39496971  0.07122429     0.06100
C1807       C  0.11356113  0.39934290  0.05411485    -0.09900
C1808       C  0.09126924  0.41800676  0.06363532    -0.11500
C1809       C  0.09261380  0.43123578  0.09151937    -0.01300
C1810       C  0.11839953  0.42674941  0.10803586    -0.10400
C1811       C  0.16130875  0.37341911  0.06323855     0.06100
H1812       H  0.11061111  0.38737290  0.03397290     0.08000
H1813       H  0.07167381  0.41950077  0.05063893     0.11500
H1814       H  0.12066165  0.43404334  0.13032857     0.11700
H1815       H  0.15952941  0.40609639  0.11196269     0.08000
C1816       C  0.19084037  0.37936568  0.06878476    -0.11100
C1817       C  0.21223317  0.35878386  0.06227394    -0.10400
C1818       C  0.20450145  0.33208526  0.04976408    -0.01300
C1819       C  0.17505193  0.32557198  0.04522154    -0.11500
C1820       C  0.15360781  0.34608544  0.05186154    -0.09900
H1821       H  0.19748668  0.40029353  0.07738635     0.08000
H1822       H  0.23491750  0.36441245  0.06515448     0.11700
H1823       H  0.16884565  0.30520017  0.03505330     0.11500
H1824       H  0.13105045  0.34060819  0.04798925     0.08000
C1825       C  0.34235242  0.16037609  0.99581590    -0.11100
C1826       C  0.34911562  0.18811644  0.98452484     0.06100
C1827       C  0.37533532  0.19149270  0.96926639    -0.09900
C1828       C  0.39087003  0.16700585  0.96035167    -0.11500
C1829       C  0.37917221  0.13888806  0.96487391    -0.01300
C1830       C  0.35871783  0.13596257  0.98754230    -0.10400
C1831       C  0.32786382  0.21249151  0.98604408     0.06100
H1832       H  0.38230566  0.21259787  0.96146057     0.08000
H1833       H  0.40954782  0.17030583  0.94632471     0.11500
H1834       H  0.35135571  0.11458067  0.99421365     0.11700
H1835       H  0.32325457  0.15722137  0.00929222     0.08000
C1836       C  0.29792227  0.20687904  0.98321138    -0.11100
C1837       C  0.27768301  0.22942300  0.98568579    -0.10400
C1838       C  0.28698161  0.25795778  0.99117932    -0.01300
C1839       C  0.31682371  0.26410123  0.99141091    -0.11500
C1840       C  0.33712806  0.24154572  0.98899721    -0.09900
H1841       H  0.29005160  0.18492192  0.97985259     0.08000
H1842       H  0.25471435  0.22422587  0.98591653     0.11700
H1843       H  0.32435151  0.28590652  0.99629531     0.11500
H1844       H  0.35996969  0.24672877  0.99114132     0.08000
C1845       C  0.55024698  0.64000554  0.68115733    -0.11100
C1846       C  0.53144235  0.66268287  0.67350814     0.06100
C1847       C  0.51797854  0.66163969  0.64592901    -0.09900
C1848       C  0.52521271  0.63995426  0.62557052    -0.11500
C1849       C  0.54766860  0.61968373  0.63147004    -0.01300
C1850       C  0.55822132  0.61894212  0.66070786    -0.10400
C1851       C  0.52776041  0.68823622  0.69337831     0.06100
H1852       H  0.50281686  0.67847008  0.63946500     0.08000
H1853       H  0.51644135  0.64223996  0.60380916     0.11500
H1854       H  0.57550559  0.60474448  0.66761215     0.11700
H1855       H  0.56112371  0.63995545  0.70213764     0.08000
C1856       C  0.52761417  0.68475569  0.72398982    -0.11100
C1857       C  0.52300933  0.70864232  0.74246214    -0.10400
C1858       C  0.51813214  0.73640690  0.73072657    -0.01300
C1859       C  0.52032433  0.74035612  0.70038849    -0.11500
C1860       C  0.52508003  0.71654106  0.68189844    -0.09900
H1861       H  0.52948074  0.66336101  0.73369567     0.08000
H1862       H  0.52063115  0.70501589  0.76574134     0.11700
H1863       H  0.51608765  0.76152514  0.69087902     0.11500
H1864       H  0.52597080  0.72025306  0.65854571     0.08000
C1865       C  0.64035492  0.58386877  0.63722627    -0.11100
C1866       C  0.63148448  0.56206157  0.65654555     0.06100
C1867       C  0.60330278  0.55057817  0.65377799    -0.09900
C1868       C  0.58359775  0.56255617  0.63372066    -0.11500
C1869       C  0.59097832  0.58778272  0.61764341    -0.01300
C1870       C  0.62052630  0.59664871  0.61818746    -0.10400
C1871       C  0.65066565  0.55404723  0.68133193     0.06100
H1872       H  0.59596020  0.53352677  0.66833178     0.08000
H1873       H  0.56142423  0.55465487  0.63374245     0.11500
H1874       H  0.62846037  0.61513987  0.60609488     0.11700
H1875       H  0.66203203  0.59296316  0.63863678     0.08000
C1876       C  0.68057141  0.54944981  0.67692965    -0.11100
C1877       C  0.69882122  0.54332680  0.70058216    -0.10400
C1878       C  0.68753731  0.54182278  0.72904538    -0.01300
C1879       C  0.65792360  0.54751454  0.73365549    -0.11500
C1880       C  0.63959912  0.55340353  0.70998542    -0.09900
H1881       H  0.68967971  0.54988108  0.65509057     0.08000
H1882       H  0.72143826  0.53811951  0.69652300     0.11700
H1883       H  0.64872326  0.54575365  0.75539078     0.11500
H1884       H  0.61676352  0.55747482  0.71406600     0.08000
C1885       C  0.60380589  0.68230543  0.59568969    -0.11100
C1886       C  0.61941580  0.67862977  0.56983314     0.06100
C1887       C  0.61489025  0.65304402  0.55337519    -0.09900
C1888       C  0.59523135  0.63153518  0.56300816    -0.11500
C1889       C  0.58050769  0.63452104  0.59001533    -0.01300
C1890       C  0.58536036  0.66075380  0.60579137    -0.10400
C1891       C  0.64138315  0.70103560  0.56175093     0.06100
H1892       H  0.62698009  0.64937060  0.53339435     0.08000
H1893       H  0.59330637  0.61159559  0.55053408     0.11500
H1894       H  0.57687074  0.66451212  0.62739691     0.11700
H1895       H  0.60737258  0.70114210  0.60948861     0.08000
C1896       C  0.63574397  0.73081170  0.56686292    -0.11100
C1897       C  0.65657988  0.75198442  0.56037920    -0.10400
C1898       C  0.68325686  0.74388154  0.54812512    -0.01300
C1899       C  0.68947622  0.71418555  0.54404947    -0.11500
C1900       C  0.66873738  0.69294535  0.55076808    -0.09900
H1901       H  0.61480595  0.73787339  0.57505171     0.08000
H1902       H  0.65107853  0.77478332  0.56287667     0.11700
H1903       H  0.70981808  0.70760571  0.53407836     0.11500
H1904       H  0.67403522  0.67025346  0.54719457     0.08000
C1905       C  0.41676295  0.40433730  0.68058686    -0.11100
C1906       C  0.43118947  0.37967393  0.66991775     0.06100
C1907       C  0.44102464  0.38005766  0.64081716    -0.09900
C1908       C  0.43378225  0.40308072  0.62210050    -0.11500
C1909       C  0.41443546  0.42531544  0.63129611    -0.01300
C1910       C  0.40860095  0.42678746  0.66178020    -0.10400
C1911       C  0.43403864  0.35311916  0.68850911     0.06100
H1912       H  0.45327296  0.36189395  0.63206635     0.08000
H1913       H  0.43933849  0.40060139  0.59926780     0.11500
H1914       H  0.39449514  0.44275480  0.67140106     0.11700
H1915       H  0.40906584  0.40514264  0.70294395     0.08000
C1916       C  0.43825683  0.35546475  0.71890062    -0.11100
C1917       C  0.44134010  0.33056215  0.73617038    -0.10400
C1918       C  0.44085363  0.30278375  0.72342376    -0.01300
C1919       C  0.43498579  0.30017796  0.69346816    -0.11500
C1920       C  0.43154706  0.32510142  0.67617355    -0.09900
H1921       H  0.44057953  0.37653631  0.72922774     0.08000
H1922       H  0.44664383  0.33302615  0.75911567     0.11700
H1923       H  0.43512963  0.27895738  0.68313266     0.11500
H1924       H  0.42750740  0.32239066  0.65302184     0.08000
C1925       C  0.35780613  0.49231814  0.66178521    -0.11100
C1926       C  0.32951898  0.48083576  0.66402672     0.06100
C1927       C  0.32019367  0.46102122  0.64282739    -0.09900
C1928       C  0.33956584  0.45007986  0.62227101    -0.11500
C1929       C  0.36938995  0.45793699  0.62275017    -0.01300
C1930       C  0.37711986  0.48198808  0.64032754    -0.10400
C1931       C  0.31008141  0.48777073  0.68905277     0.06100
H1932       H  0.29835428  0.45224442  0.64332018     0.08000
H1933       H  0.33094128  0.43387193  0.60757856     0.11500
H1934       H  0.39929982  0.48987783  0.64033515     0.11700
H1935       H  0.36535174  0.50840142  0.67733377     0.08000
C1936       C  0.32100322  0.48876550  0.71775511    -0.11100
C1937       C  0.30240379  0.49432709  0.74137365    -0.10400
C1938       C  0.27263919  0.49903239  0.73664018     0.23100
C1939       C  0.26150653  0.49682011  0.70822178    -0.11500
C1940       C  0.28003799  0.49143962  0.68464119    -0.09900
H1941       H  0.34393278  0.48542741  0.72190467     0.08000
H1942       H  0.31144534  0.49661269  0.76311086     0.11700
H1943       H  0.23874615  0.50125739  0.70408354     0.11500
H1944       H  0.27094990  0.49102725  0.66281809     0.08000
C1945       C  0.34692272  0.39201517  0.55525977    -0.11100
C1946       C  0.33862783  0.36879929  0.57360304     0.06100
C1947       C  0.35031942  0.36733323  0.60168167    -0.09900
C1948       C  0.36899814  0.38873173  0.61163271    -0.11500
C1949       C  0.37804639  0.41220064  0.59357773    -0.01300
C1950       C  0.36673204  0.41323560  0.56492088    -0.10400
C1951       C  0.31663714  0.34683997  0.56475311     0.06100
H1952       H  0.34357352  0.35056145  0.61687110     0.08000
H1953       H  0.37484509  0.38752095  0.63444402     0.11500
H1954       H  0.37163274  0.43133755  0.55062733     0.11700
H1955       H  0.33752069  0.39423704  0.53371955     0.08000
C1956       C  0.29200011  0.35502154  0.54861147    -0.11100
C1957       C  0.27122740  0.33426396  0.54079121    -0.10400
C1958       C  0.27470254  0.30502536  0.54901669    -0.01300
C1959       C  0.29851635  0.29696916  0.56619401    -0.11500
C1960       C  0.31946024  0.31761604  0.57374702    -0.09900
H1961       H  0.28883716  0.37739492  0.54191000     0.08000
H1962       H  0.25310378  0.34068966  0.52713062     0.11700
H1963       H  0.30187357  0.27437319  0.57206257     0.11500
H1964       H  0.33833511  0.31048663  0.58592362     0.08000
C1965       C  0.61810542  0.48491485  0.39565766    -0.11100
C1966       C  0.61603784  0.47600837  0.36637577     0.06100
C1967       C  0.59194605  0.45972245  0.35775327    -0.09900
C1968       C  0.57233261  0.44928923  0.37848230    -0.11500
C1969       C  0.57544085  0.45574151  0.40875860    -0.01300
C1970       C  0.59750975  0.47588264  0.41629697    -0.10400
C1971       C  0.64028838  0.48082175  0.34553182     0.06100
H1972       H  0.58987841  0.45242996  0.33531513     0.08000
H1973       H  0.55734724  0.43344909  0.37017063     0.11500
H1974       H  0.60147684  0.48140918  0.43893353     0.11700
H1975       H  0.63645097  0.49781448  0.40287445     0.08000
C1976       C  0.66900360  0.47498578  0.35415325    -0.11100
C1977       C  0.69208146  0.47971915  0.33488411    -0.10400
C1978       C  0.68692275  0.49077557  0.30679757    -0.01300
C1979       C  0.65817828  0.49497423  0.29745081    -0.11500
C1980       C  0.63499058  0.48995571  0.31666911    -0.09900
H1981       H  0.67364064  0.46720912  0.37600718     0.08000
H1982       H  0.71414901  0.47679034  0.34259098     0.11700
H1983       H  0.65384376  0.50412138  0.27607176     0.11500
H1984       H  0.61303302  0.49440836  0.30941575     0.08000
C1985       C  0.68845627  0.38135298  0.49365273    -0.11100
C1986       C  0.66882429  0.37291021  0.47159661     0.06100
C1987       C  0.67277267  0.34534837  0.45848845    -0.09900
C1988       C  0.69454428  0.32633471  0.46800020    -0.11500
C1989       C  0.71291887  0.33405650  0.49109926    -0.01300
C1990       C  0.71039148  0.36218390  0.50315973    -0.10400
C1991       C  0.64357844  0.39167217  0.46259161     0.06100
H1992       H  0.65790603  0.33757262  0.44191433     0.08000
H1993       H  0.69548557  0.30457506  0.45889249     0.11500
H1994       H  0.72408984  0.36852233  0.52131964     0.11700
H1995       H  0.68643622  0.40241863  0.50407579     0.08000
C1996       C  0.63400439  0.39090223  0.43356655    -0.11100
C1997       C  0.60854902  0.40491893  0.42522288    -0.10400
C1998       C  0.59104218  0.42050555  0.44541525    -0.01300
C1999       C  0.60139769  0.42266636  0.47438580    -0.11500
C2000       C  0.62763444  0.40881785  0.48265986    -0.09900
H2001       H  0.64613278  0.37918267  0.41702422     0.08000
H2002       H  0.60207144  0.40306550  0.40255232     0.11700
H2003       H  0.58946874  0.43493693  0.49063609     0.11500
H2004       H  0.63509633  0.41096871  0.50494619     0.08000
C2005       C  0.51350005  0.36270404  0.32768109    -0.11100
C2006       C  0.51055008  0.35215518  0.35639816     0.06100
C2007       C  0.50257136  0.32290315  0.36054562    -0.09900
C2008       C  0.49609231  0.30510435  0.33651756    -0.11500
C2009       C  0.49777643  0.31613324  0.30794274    -0.01300
C2010       C  0.50737555  0.34479991  0.30369056    -0.10400
C2011       C  0.51712735  0.37145658  0.38167049     0.06100
H2012       H  0.50023605  0.31415267  0.38239712     0.08000
H2013       H  0.48804896  0.28326819  0.34027202     0.11500
H2014       H  0.50831697  0.35386561  0.28185523     0.11700
H2015       H  0.52024112  0.38495592  0.32379980     0.08000
C2016       C  0.50729253  0.40044770  0.38238486    -0.11100
C2017       C  0.51842553  0.42011901  0.40297804    -0.10400
C2018       C  0.54214095  0.41193364  0.42073059    -0.01300
C2019       C  0.54734921  0.38169679  0.42386719    -0.11500
C2020       C  0.53536251  0.36178149  0.40417468    -0.09900
H2021       H  0.49229978  0.40831273  0.36595206     0.08000
H2022       H  0.51198603  0.44276174  0.40159155     0.11700
H2023       H  0.56245577  0.37336991  0.43991084     0.11500
H2024       H  0.54227124  0.33926354  0.40514356     0.08000
C2025       C  0.43985042  0.67323079  0.31709878    -0.11100
C2026       C  0.42832954  0.68562994  0.34266443     0.06100
C2027       C  0.42406207  0.71596670  0.34377853    -0.09900
C2028       C  0.43248778  0.73368230  0.32048513    -0.11500
C2029       C  0.44522639  0.72145517  0.29553322    -0.01300
C2030       C  0.44783415  0.69100473  0.29352171    -0.10400
C2031       C  0.41929682  0.66730887  0.36780379     0.06100
H2032       H  0.41515623  0.72612296  0.36320205     0.08000
H2033       H  0.43076184  0.75710311  0.32268682     0.11500
H2034       H  0.45768894  0.68118169  0.27440065     0.11700
H2035       H  0.44282385  0.64990093  0.31545374     0.08000
C2036       C  0.39218827  0.67242983  0.38040414    -0.11100
C2037       C  0.38305863  0.65641128  0.40430561    -0.10400
C2038       C  0.40084216  0.63484773  0.41744795    -0.01300
C2039       C  0.42815634  0.62936357  0.40445216    -0.11500
C2040       C  0.43714724  0.64532010  0.37967018    -0.09900
H2041       H  0.37767493  0.68872743  0.37145364     0.08000
H2042       H  0.36167346  0.66126668  0.41281473     0.11700
H2043       H  0.44221068  0.61239591  0.41270850     0.11500
H2044       H  0.45805655  0.64064632  0.36988255     0.08000
C2045       C  0.36337127  0.68832970  0.47712895    -0.11100
C2046       C  0.33625283  0.67968507  0.48832875     0.06100
C2047       C  0.33237852  0.64990913  0.49491596    -0.09900
C2048       C  0.35277566  0.62911071  0.48553762    -0.11500
C2049       C  0.37575780  0.63770666  0.46704980    -0.01300
C2050       C  0.38344624  0.66749096  0.46767377    -0.10400
C2051       C  0.31197264  0.70118311  0.49196698     0.06100
H2052       H  0.31286984  0.64249323  0.50585900     0.08000
H2053       H  0.34764166  0.60625672  0.48815041     0.11500
H2054       H  0.40311267  0.67509762  0.45716129     0.11700
H2055       H  0.36826171  0.71101166  0.47317956     0.08000
C2056       C  0.31746805  0.73058062  0.49887506    -0.11100
C2057       C  0.29450545  0.75015322  0.50331892    -0.10400
C2058       C  0.26554345  0.74070848  0.50159112    -0.01300
C2059       C  0.25991366  0.71206443  0.49267247    -0.11500
C2060       C  0.28285004  0.69255754  0.48779326    -0.09900
H2061       H  0.33940119  0.73823474  0.50248961     0.08000
H2062       H  0.29932234  0.77200880  0.51078824     0.11700
H2063       H  0.23774793  0.70420061  0.49161697     0.11500
H2064       H  0.27765819  0.67045948  0.48147169     0.08000
C2065       C  0.26916044  0.57485266  0.36672969    -0.11100
C2066       C  0.29909137  0.57548682  0.36003141     0.06100
C2067       C  0.30768514  0.56911493  0.33114108    -0.09900
C2068       C  0.28702955  0.56125123  0.30998894    -0.11500
C2069       C  0.25739147  0.55980256  0.31721087    -0.01300
C2070       C  0.24860933  0.56738590  0.34553043    -0.10400
C2071       C  0.32082221  0.58316831  0.38317487     0.06100
H2072       H  0.33036563  0.56982438  0.32490521     0.08000
H2073       H  0.29430913  0.55474538  0.28842266     0.11500
H2074       H  0.22596938  0.56550447  0.35178996     0.11700
H2075       H  0.26155327  0.57895198  0.38874605     0.08000
C2076       C  0.31348479  0.60352936  0.40470860    -0.11100
C2077       C  0.33368496  0.61241664  0.42549205    -0.10400
C2078       C  0.36221329  0.60061664  0.42666425    -0.01300
C2079       C  0.36912589  0.57931091  0.40545876    -0.11500
C2080       C  0.34907206  0.57132154  0.38368814    -0.09900
H2081       H  0.29261174  0.61441911  0.40433868     0.08000
H2082       H  0.32714439  0.63089979  0.43836401     0.11700
H2083       H  0.39099782  0.57066962  0.40419232     0.11500
H2084       H  0.35614812  0.55659214  0.36671633     0.08000
C2085       C  0.61683530  0.67323275  0.43166271    -0.11100
C2086       C  0.61597112  0.68364291  0.46024891     0.06100
C2087       C  0.59655426  0.67062314  0.48024456    -0.09900
C2088       C  0.58005213  0.64590792  0.47221870    -0.11500
C2089       C  0.58210554  0.63443620  0.44365958    -0.01300
C2090       C  0.60011736  0.64950808  0.42347513    -0.10400
C2091       C  0.63699944  0.70666074  0.46890673     0.06100
H2092       H  0.59498259  0.67894585  0.50230648     0.08000
H2093       H  0.56643821  0.63560153  0.48847619     0.11500
H2094       H  0.60291876  0.64170872  0.40137114     0.11700
H2095       H  0.63116400  0.68306637  0.41565334     0.08000
C2096       C  0.66672299  0.70333143  0.46215511    -0.11100
C2097       C  0.68705978  0.72436811  0.47061636    -0.10400
C2098       C  0.67805764  0.74928343  0.48579152    -0.01300
C2099       C  0.64814501  0.75351975  0.49093188    -0.11500
C2100       C  0.62782965  0.73219893  0.48296477    -0.09900
H2101       H  0.67436184  0.68383705  0.45123944     0.08000
H2102       H  0.70997132  0.72037646  0.46688096     0.11700
H2103       H  0.64075154  0.77259924  0.50271485     0.11500
H2104       H  0.60505537  0.73551600  0.48797930     0.08000
C2105       C  0.54884490  0.63442449  0.35546897    -0.11100
C2106       C  0.52770957  0.65541588  0.36175500     0.06100
C2107       C  0.51521428  0.65538316  0.38982657    -0.09900
C2108       C  0.52546618  0.63659096  0.41167587    -0.11500
C2109       C  0.54864806  0.61697533  0.40637523    -0.01300
C2110       C  0.55914457  0.61578386  0.37712985    -0.10400
C2111       C  0.52086769  0.67862874  0.33989351     0.06100
H2112       H  0.49839888  0.67090193  0.39546065     0.08000
H2113       H  0.51715652  0.63989238  0.43349574     0.11500
H2114       H  0.57818522  0.60371751  0.37094168     0.11700
H2115       H  0.55961811  0.63404207  0.33442284     0.08000
C2116       C  0.51427776  0.70718084  0.34903966    -0.11100
C2117       C  0.50754727  0.72882344  0.32862320    -0.10400
C2118       C  0.50767822  0.72254635  0.29862576    -0.01300
C2119       C  0.51589191  0.69468831  0.28923311    -0.11500
C2120       C  0.52205291  0.67285024  0.30962314    -0.09900
H2121       H  0.51398135  0.71282592  0.37200959     0.08000
H2122       H  0.50076083  0.75009269  0.33626858     0.11700
H2123       H  0.51533722  0.68925374  0.26618765     0.11500
H2124       H  0.52664820  0.65117219  0.30158286     0.08000
C2125       C  0.68975315  0.54906507  0.37446272    -0.11100
C2126       C  0.66159918  0.55839607  0.36690931     0.06100
C2127       C  0.65559000  0.56478602  0.33748645    -0.09900
C2128       C  0.67654168  0.56006615  0.31584711    -0.11500
C2129       C  0.70378359  0.54839617  0.32308222    -0.01300
C2130       C  0.71066053  0.54395843  0.35266683    -0.10400
C2131       C  0.63854911  0.56247992  0.38939033     0.06100
H2132       H  0.63435753  0.57275508  0.33112378     0.08000
H2133       H  0.67064215  0.56316864  0.29313270     0.11500
H2134       H  0.73131290  0.53432920  0.35864377     0.11700
H2135       H  0.69506644  0.54424882  0.39700361     0.08000
C2136       C  0.64434358  0.57828070  0.41489314    -0.11100
C2137       C  0.62140883  0.58870683  0.43200702    -0.10400
C2138       C  0.59213052  0.58457489  0.42316730    -0.01300
C2139       C  0.58703674  0.56239688  0.40247840    -0.11500
C2140       C  0.60987985  0.55294548  0.38441508    -0.09900
H2141       H  0.66633887  0.58478381  0.42021579     0.08000
H2142       H  0.62680660  0.60247389  0.45042440     0.11700
H2143       H  0.56499131  0.55634817  0.39684742     0.11500
H2144       H  0.60491005  0.53956378  0.36557372     0.08000
C2145       C  0.34116669  0.49437012  0.39191505    -0.11100
C2146       C  0.31367941  0.48112746  0.39310723     0.06100
C2147       C  0.30843355  0.46049386  0.41492822    -0.09900
C2148       C  0.33150541  0.44976137  0.43158481    -0.11500
C2149       C  0.36054457  0.45863988  0.42580463    -0.01300
C2150       C  0.36400682  0.48444412  0.40955952    -0.10400
C2151       C  0.29181434  0.48649166  0.36986397     0.06100
H2152       H  0.28709650  0.45084467  0.41742302     0.08000
H2153       H  0.32656273  0.43274242  0.44712614     0.11500
H2154       H  0.38545685  0.49365352  0.40643452     0.11700
H2155       H  0.34556704  0.51064663  0.37558100     0.08000
C2156       C  0.30029124  0.48534074  0.34034559    -0.11100
C2157       C  0.28027374  0.49103257  0.31811677    -0.10400
C2158       C  0.25146237  0.49826746  0.32496120    -0.01300
C2159       C  0.24248393  0.49792863  0.35432811    -0.11500
C2160       C  0.26249319  0.49191262  0.37664256    -0.09900
H2161       H  0.32260566  0.48053115  0.33449278     0.08000
H2162       H  0.28770610  0.49170916  0.29564579     0.11700
H2163       H  0.22048446  0.50414240  0.36005008     0.11500
H2164       H  0.25537831  0.49273298  0.39920329     0.08000
C2165       C  0.29745095  0.33376883  0.45769079    -0.11100
C2166       C  0.32621698  0.33329712  0.46833981     0.06100
C2167       C  0.33440688  0.31094458  0.48754426    -0.09900
C2168       C  0.31389379  0.29035492  0.49685251    -0.11500
C2169       C  0.28465412  0.29233776  0.48789577    -0.01300
C2170       C  0.27690281  0.31354743  0.46739507    -0.10400
C2171       C  0.34672152  0.35692646  0.45984321     0.06100
H2172       H  0.35643200  0.30977438  0.49579533     0.08000
H2173       H  0.32037452  0.27396609  0.51255671     0.11500
H2174       H  0.25450015  0.31572783  0.46045746     0.11700
H2175       H  0.29036684  0.35083883  0.44301188     0.08000
C2176       C  0.34686140  0.36655039  0.43092900    -0.11100
C2177       C  0.36112686  0.39202085  0.42332861    -0.10400
C2178       C  0.37588478  0.40932724  0.44433234    -0.01300
C2179       C  0.37788538  0.39830595  0.47303920    -0.11500
C2180       C  0.36367356  0.37208540  0.48056574    -0.09900
H2181       H  0.33478124  0.35497469  0.41425057     0.08000
H2182       H  0.35902823  0.39925694  0.40092571     0.11700
H2183       H  0.38929775  0.41027069  0.48985602     0.11500
H2184       H  0.36474052  0.36437167  0.50285797     0.08000
C2185       C  0.43722934  0.38070538  0.30848033    -0.11100
C2186       C  0.42908737  0.37341965  0.33714926     0.06100
C2187       C  0.42348772  0.34417236  0.34409207    -0.09900
C2188       C  0.42794487  0.32234294  0.32333504    -0.11500
C2189       C  0.43829820  0.32942250  0.29542476    -0.01300
C2190       C  0.44187082  0.35878872  0.28773293    -0.10400
C2191       C  0.42552435  0.39608222  0.35981442     0.06100
H2192       H  0.41641742  0.33815396  0.36586051     0.08000
H2193       H  0.42555799  0.29977176  0.32974049     0.11500
H2194       H  0.45048683  0.36453662  0.26645813     0.11700
H2195       H  0.44138169  0.40315575  0.30259932     0.08000
C2196       C  0.40762195  0.41999508  0.35451883    -0.11100
C2197       C  0.39792681  0.43721927  0.37766063    -0.10400
C2198       C  0.40664002  0.43154305  0.40694812    -0.01300
C2199       C  0.42877650  0.41045748  0.41084283    -0.11500
C2200       C  0.43708733  0.39219413  0.38786620    -0.09900
H2201       H  0.39852943  0.42348069  0.33295269     0.08000
H2202       H  0.38095593  0.45213305  0.37192395     0.11700
H2203       H  0.43629592  0.40483589  0.43251054     0.11500
H2204       H  0.45126298  0.37391361  0.39239366     0.08000
C2205       C  0.61291771  0.47883220  0.64766111    -0.11100
C2206       C  0.61116911  0.46738571  0.67606847     0.06100
C2207       C  0.58693859  0.45066307  0.68346611    -0.09900
C2208       C  0.56685562  0.44245427  0.66225717    -0.11500
C2209       C  0.56990142  0.45104185  0.63252695    -0.01300
C2210       C  0.59215091  0.47152460  0.62648087    -0.10400
C2211       C  0.63531878  0.47092457  0.69739715     0.06100
H2212       H  0.58488056  0.44141545  0.70514774     0.08000
H2213       H  0.55173534  0.42641978  0.66967534     0.11500
H2214       H  0.59618235  0.47871522  0.60435328     0.11700
H2215       H  0.63107287  0.49248303  0.64142336     0.08000
C2216       C  0.66445583  0.46944001  0.68811397    -0.11100
C2217       C  0.68713742  0.47416576  0.70791156    -0.10400
C2218       C  0.68106749  0.48050314  0.73728634    -0.01300
C2219       C  0.65219622  0.47966875  0.74709737    -0.11500
C2220       C  0.62950168  0.47506498  0.72732854    -0.09900
H2221       H  0.66970269  0.46541327  0.66538570     0.08000
H2222       H  0.70926789  0.47520510  0.69987394     0.11700
H2223       H  0.64707655  0.48520502  0.76954991     0.11500
H2224       H  0.60735414  0.47632987  0.73524724     0.08000
C2225       C  0.53448998  0.35509266  0.62925859    -0.11100
C2226       C  0.51737820  0.36137150  0.65370803     0.06100
C2227       C  0.50604845  0.38977535  0.65649525    -0.09900
C2228       C  0.51433369  0.41193404  0.63687179    -0.11500
C2229       C  0.53744749  0.40698899  0.61719132    -0.01300
C2230       C  0.54396320  0.37735087  0.61101568    -0.10400
C2231       C  0.51276207  0.33855975  0.67645015     0.06100
H2232       H  0.49173050  0.39514469  0.67449860     0.08000
H2233       H  0.50665053  0.43389558  0.64072889     0.11500
H2234       H  0.55844040  0.37085061  0.59366668     0.11700
H2235       H  0.54266172  0.33330795  0.62543973     0.08000
C2236       C  0.50821663  0.30932285  0.66841548    -0.11100
C2237       C  0.50319700  0.28803201  0.68966659    -0.10400
C2238       C  0.50235133  0.29547600  0.71940282    -0.01300
C2239       C  0.50909280  0.32412966  0.72768857    -0.11500
C2240       C  0.51412337  0.34551945  0.70639373    -0.09900
H2241       H  0.50700055  0.30311583  0.64561338     0.08000
H2242       H  0.49734048  0.26624702  0.68276259     0.11700
H2243       H  0.50798798  0.33046376  0.75047727     0.11500
H2244       H  0.51835050  0.36765516  0.71333015     0.08000
C2245       C  0.62617655  0.38616109  0.60087833    -0.11100
C2246       C  0.62616887  0.37700316  0.57178572     0.06100
C2247       C  0.60515046  0.38861703  0.55265987    -0.09900
C2248       C  0.58500166  0.40954456  0.56246876    -0.11500
C2249       C  0.58457953  0.41824594  0.59212369    -0.01300
C2250       C  0.60583653  0.40592420  0.61085504    -0.10400
C2251       C  0.64799605  0.35498687  0.56246964     0.06100
H2252       H  0.60372397  0.38094604  0.53037707     0.08000
H2253       H  0.56835546  0.41691330  0.54749854     0.11500
H2254       H  0.60577159  0.40978242  0.63413619     0.11700
H2255       H  0.64096626  0.37676216  0.61668101     0.08000
C2256       C  0.67607444  0.35559430  0.57473846    -0.11100
C2257       C  0.69676884  0.33488786  0.56703778    -0.10400
C2258       C  0.69025700  0.31365886  0.54618230    -0.01300
C2259       C  0.66219189  0.31234457  0.53419998    -0.11500
C2260       C  0.64110578  0.33281759  0.54240048    -0.09900
H2261       H  0.68248567  0.37271299  0.58967096     0.08000
H2262       H  0.71859752  0.33673612  0.57573197     0.11700
H2263       H  0.65712090  0.29640568  0.51750678     0.11500
H2264       H  0.61962847  0.33146786  0.53285396     0.08000
C2265       C  0.41001427  0.68568717  0.64144031    -0.11100
C2266       C  0.43419533  0.67883968  0.65841254     0.06100
C2267       C  0.44812377  0.65193005  0.65399190    -0.09900
C2268       C  0.43736228  0.63191219  0.63340839    -0.11500
C2269       C  0.41076371  0.63726593  0.61881696    -0.01300
C2270       C  0.39818292  0.66530600  0.62258120    -0.10400
C2271       C  0.44276444  0.69923674  0.68199886     0.06100
H2272       H  0.46640124  0.64576200  0.66747637     0.08000
H2273       H  0.44751539  0.61068605  0.63201914     0.11500
H2274       H  0.37743967  0.67138245  0.61361161     0.11700
H2275       H  0.39846562  0.70600213  0.64469077     0.08000
C2276       C  0.44307907  0.72938573  0.67664236    -0.11100
C2277       C  0.44958895  0.74898625  0.69898882    -0.10400
C2278       C  0.45611810  0.73884235  0.72706700    -0.01300
C2279       C  0.45464098  0.70886237  0.73290795    -0.11500
C2280       C  0.44817012  0.68915371  0.71047786    -0.09900
H2281       H  0.43898216  0.73777101  0.65490902     0.08000
H2282       H  0.45137029  0.77195473  0.69394461     0.11700
H2283       H  0.46011175  0.70066489  0.75441043     0.11500
H2284       H  0.44742740  0.66610066  0.71535035     0.08000
C2285       C  0.34832727  0.66428207  0.56044876    -0.11100
C2286       C  0.32159518  0.66503097  0.57535404     0.06100
C2287       C  0.31579663  0.64373137  0.59616134    -0.09900
C2288       C  0.33722474  0.62413497  0.60443286    -0.11500
C2289       C  0.36517937  0.62393772  0.59105831    -0.01300
C2290       C  0.36917855  0.64279710  0.56691705    -0.10400
C2291       C  0.30011311  0.68869442  0.57113683     0.06100
H2292       H  0.29545051  0.64394408  0.60813745     0.08000
H2293       H  0.33187275  0.61166736  0.62351753     0.11500
H2294       H  0.39009820  0.64388934  0.55610409     0.11700
H2295       H  0.35358057  0.68101509  0.54471290     0.08000
C2296       C  0.30834299  0.71803180  0.57368874    -0.11100
C2297       C  0.28772966  0.74020859  0.57001632    -0.10400
C2298       C  0.25878257  0.73330445  0.56318714    -0.01300
C2299       C  0.25023118  0.70401800  0.56253647    -0.11500
C2300       C  0.27069494  0.68190957  0.56653249    -0.09900
H2301       H  0.33077532  0.72375234  0.57796697     0.08000
H2302       H  0.29482547  0.76268733  0.57003482     0.11700
H2303       H  0.22817110  0.69826308  0.55661571     0.11500
H2304       H  0.26377594  0.65943822  0.56483439     0.08000
C2305       C  0.34316996  0.56049567  0.65152693    -0.11100
C2306       C  0.34303752  0.57463469  0.67882911     0.06100
C2307       C  0.36473892  0.59492904  0.68472155    -0.09900
C2308       C  0.38366832  0.60387689  0.66286090    -0.11500
C2309       C  0.38193534  0.59267909  0.63386774    -0.01300
C2310       C  0.36328002  0.56846138  0.62970945    -0.10400
C2311       C  0.31950319  0.57021722  0.70066460     0.06100
H2312       H  0.36546191  0.60603518  0.70561818     0.08000
H2313       H  0.39714215  0.62199642  0.66892177     0.11500
H2314       H  0.36067291  0.55886642  0.60830283     0.11700
H2315       H  0.32675806  0.54436902  0.64651918     0.08000
C2316       C  0.29016777  0.57006386  0.69207938    -0.11100
C2317       C  0.26813548  0.56559092  0.71276445    -0.10400
C2318       C  0.27513459  0.56083419  0.74226187    -0.01300
C2319       C  0.30418748  0.56317721  0.75116961    -0.11500
C2320       C  0.32617173  0.56778150  0.73057763    -0.09900
H2321       H  0.28434654  0.57272528  0.66929898     0.08000
H2322       H  0.24588189  0.56330400  0.70539602     0.11700
H2323       H  0.31009193  0.55884628  0.77367527     0.11500
H2324       H  0.34855153  0.56801243  0.73788849     0.08000
loop_ 
_geom_bond_atom_site_label_1 
_geom_bond_atom_site_label_2 
_geom_bond_distance 
_geom_bond_site_symmetry_2 
_ccdc_geom_bond_type 
C1           C10   1.557       .  S
C1         C2269   1.563       .  S
C1         C2289   1.564       .  S
C1         C2309   1.570       .  S
N2            N3   1.327       .  A
N2            N8   1.320       .  A
N2          Mn31   2.241       .  S
N3           C10   1.358       .  A
N4            N6   1.322       .  A
N4            N5   1.329       .  A
N4          Mn20   2.259       .  S
N5           C11   1.361       .  A
N6            N7   1.329       .  A
N6          Mn31   2.252       .  S
N7           C11   1.360       .  A
N8            N9   1.329       .  A
N8          Mn20   2.258       .  S
N9           C10   1.363       .  A
C11          C50   1.553       .  S
N12          N18   1.322       .  A
N12          N13   1.327       .  A
N12         Mn42   2.251       .  S
N13          C21   1.361       .  A
N14          N15   1.326       .  A
N14          N16   1.320       .  A
N14         Mn20   2.241       .  S
N15          C22   1.358       .  A
N16          N17   1.326       .  A
N16         Mn42   2.240       .  S
N17          C22   1.360       .  A
N18          N19   1.330       .  A
N18         Mn20   2.261       .  S
N19          C21   1.362       .  A
Mn20        Cl44   2.587       .  S
C21          C49   1.563       .  S
C22          C53   1.553       .  S
N23          N24   1.326       .  A
N23          N29   1.320       .  A
N23         Mn31   2.246       .  S
N24          C32   1.360       .  A
N25          N27   1.319       .  A
N25          N26   1.323       .  A
N25         Mn43   2.222       .  S
N26          C33   1.355       .  A
N27          N28   1.329       .  A
N27         Mn31   2.252       .  S
N28          C33   1.363       .  A
N29          N30   1.328       .  A
N29         Mn43   2.237       .  S
N30          C32   1.359       .  A
Mn31        Cl44   2.578       .  S
C32          C48   1.553       .  S
C33          C52   1.548       .  S
N34          N35   1.328       .  A
N34          N40   1.319       .  A
N34         Mn42   2.256       .  S
N35          C45   1.363       .  A
N36          N37   1.327       .  A
N36          N38   1.320       .  A
N36         Mn43   2.253       .  S
N37          C46   1.363       .  A
N38          N39   1.328       .  A
N38         Mn42   2.235       .  S
N39          C46   1.358       .  A
N40          N41   1.326       .  A
N40         Mn43   2.224       .  S
N41          C45   1.356       .  A
Mn42        Cl44   2.580       .  S
Mn43        Cl44   2.579       .  S
C45          C47   1.550       .  S
C46          C51   1.556       .  S
C47        C2209   1.569       .  S
C47        C2229   1.572       .  S
C47        C2249   1.553       .  S
C48        C2149   1.564       .  S
C48        C2178   1.560       .  S
C48        C2198   1.562       .  S
C49        C2089   1.559       .  S
C49        C2109   1.567       .  S
C49        C2138   1.567       .  S
C50        C2038   1.556       .  S
C50        C2049   1.560       .  S
C50        C2078   1.562       .  S
C51        C1969   1.565       .  S
C51        C1998   1.564       .  S
C51        C2018   1.561       .  S
C52        C1909   1.567       .  S
C52        C1929   1.559       .  S
C52        C1949   1.556       .  S
C53        C1849   1.566       .  S
C53        C1869   1.559       .  S
C53        C1889   1.563       .  S
C54          C55   1.416       .  A
C54          C59   1.404   1_554  A
C54        C1838   1.477   1_554  S
C55          C56   1.400       .  A
C55        C1789   1.484       .  S
C56          C57   1.402       .  A
C56          H61   1.084       .  S
C57          C58   1.416       .  A
C57        C1818   1.475       .  S
C58          C59   1.405   1_554  A
C58        C1769   1.486   1_554  S
C59          H60   1.084       .  S
C62          C63   1.416       .  A
C62          C67   1.401       .  A
C62        C1718   1.475       .  S
C63          C64   1.402   1_545  A
C63        C1749   1.482   1_545  S
C64          C65   1.403       .  A
C64          H69   1.084       .  S
C65          C66   1.417   1_565  A
C65        C1689   1.479       .  S
C66          C67   1.400       .  A
C66        C1729   1.480       .  S
C67          H68   1.084       .  S
C70          C71   1.416   1_655  A
C70          C75   1.402       .  A
C70        C1629   1.473       .  S
C71          C72   1.399       .  A
C71        C1669   1.481       .  S
C72          C73   1.401       .  A
C72          H77   1.084       .  S
C73          C74   1.415   1_455  A
C73        C1609   1.472       .  S
C74          C75   1.399       .  A
C74        C1649   1.481       .  S
C75          H76   1.084       .  S
C78          C79   1.415       .  A
C78          C83   1.404       .  A
C78        C2009   1.485       .  S
C79          C80   1.403       .  A
C79        C2189   1.476       .  S
C80          C81   1.403       .  A
C80          H85   1.084       .  S
C81          C82   1.415       .  A
C81        C1589   1.483       .  S
C82          C83   1.405       .  A
C82        C1578   1.479       .  S
C83          H84   1.084       .  S
C86          C87   1.417       .  A
C86          C91   1.405       .  A
C86        C2169   1.489       .  S
C87          C88   1.404       .  A
C87        C1958   1.476       .  S
C88          C89   1.401       .  A
C88          H93   1.084       .  S
C89          C90   1.414       .  A
C89        C1538   1.483       .  S
C90          C91   1.405       .  A
C90        C1558   1.478       .  S
C91          H92   1.084       .  S
C94          C95   1.416       .  A
C94          C99   1.404       .  A
C94        C2158   1.482       .  S
C95          C96   1.407       .  A
C95        C2069   1.485       .  S
C96          C97   1.406       .  A
C96         H101   1.083       .  S
C97          C98   1.416       .  A
C97        C1518   1.488       .  S
C98          C99   1.404       .  A
C98        C1498   1.481       .  S
C99         H100   1.084       .  S
C102        C103   1.416       .  A
C102        C107   1.403       .  A
C102       C1449   1.479       .  S
C103        C104   1.405   1_554  A
C103       C1478   1.484   1_554  S
C104        C105   1.403   1_556  A
C104        H109   1.084       .  S
C105        C106   1.415       .  A
C105       C1429   1.483   1_554  S
C106        C107   1.400       .  A
C106       C1418   1.478       .  S
C107        H108   1.084       .  S
C110        C111   1.415       .  A
C110        C115   1.402   1_554  A
C110       C1389   1.479   1_554  S
C111        C112   1.402       .  A
C111       C1378   1.479       .  S
C112        C113   1.404       .  A
C112        H117   1.084       .  S
C113        C114   1.416       .  A
C113       C1329   1.478       .  S
C114        C115   1.403   1_554  A
C114       C1349   1.483   1_554  S
C115        H116   1.084       .  S
C118        C119   1.416       .  A
C118        C123   1.402   1_655  A
C118       C1309   1.484   1_655  S
C119        C120   1.404       .  A
C119       C1289   1.481       .  S
C120        C121   1.404       .  A
C120        H125   1.084       .  S
C121        C122   1.416       .  A
C121       C1269   1.483       .  S
C122        C123   1.405   1_655  A
C122       C1258   1.482   1_655  S
C123        H124   1.084       .  S
C126        C127   1.415       .  A
C126        C131   1.401       .  A
C126       C1978   1.480       .  S
C127        C128   1.405       .  A
C127       C2129   1.484       .  S
C128        C129   1.408       .  A
C128        H133   1.083       .  S
C129        C130   1.416       .  A
C129       C1209   1.486       .  S
C130        C131   1.403       .  A
C130       C1229   1.478       .  S
C131        H132   1.084       .  S
C134        C135   1.415       .  A
C134        C139   1.405       .  A
C134       C2318   1.481       .  S
C135        C136   1.401       .  A
C135       C1938   1.480       .  S
C136        C137   1.402       .  A
C136        H141   1.084       .  S
C137        C138   1.416       .  A
C137       C1198   1.479       .  S
C138        C139   1.405       .  A
C138       C1169   1.483       .  S
C139        H140   1.083       .  S
C142        C163   1.559       .  S
C142       C1109   1.559       .  S
C142       C1129   1.568       .  S
C142       C1158   1.570       .  S
N143        N144   1.323       .  A
N143        N149   1.320       .  A
N143       Mn172   2.225   1_556  S
N144        C151   1.354       .  A
N145        N147   1.319       .  A
N145        N146   1.326       .  A
N145       Mn161   2.252   1_455  S
N146        C152   1.360       .  A
N147        N148   1.329       .  A
N147       Mn172   2.242       .  S
N148        C152   1.361       .  A
N149        N150   1.330       .  A
N149       Mn161   2.257   1_456  S
N150        C151   1.364       .  A
C151        C190   1.552       .  S
C152        C201   1.557       .  S
N153        N159   1.321       .  A
N153        N154   1.330       .  A
N153       Mn183   2.256       .  S
N154        C162   1.362       .  A
N155        N156   1.327       .  A
N155        N157   1.320       .  A
N155       Mn161   2.260   1_556  S
N156        C163   1.362       .  A
N157        N158   1.329       .  A
N157       Mn183   2.242   1_556  S
N158        C163   1.360       .  A
N159        N160   1.327       .  A
N159       Mn161   2.248       .  S
N160        C162   1.359       .  A
Mn161      Cl185   2.575       .  S
C162        C192   1.552       .  S
N164        N165   1.325       .  A
N164        N170   1.319       .  A
N164       Mn172   2.222       .  S
N165        C173   1.356       .  A
N166        N168   1.319       .  A
N166        N167   1.325       .  A
N166       Mn184   2.247   1_456  S
N167        C174   1.361       .  A
N168        N169   1.331       .  A
N168       Mn172   2.246   1_556  S
N169        C174   1.361       .  A
N170        N171   1.327       .  A
N170       Mn184   2.251   1_455  S
N171        C173   1.362       .  A
Mn172      Cl185   2.585   1_455  S
C173        C202   1.547       .  S
C174        C189   1.559       .  S
N175        N176   1.326       .  A
N175        N181   1.320       .  A
N175       Mn183   2.237   1_556  S
N176        C186   1.357       .  A
N177        N178   1.323       .  A
N177        N179   1.320       .  A
N177       Mn184   2.238       .  S
N178        C187   1.357       .  A
N179        N180   1.330       .  A
N179       Mn183   2.247       .  S
N180        C187   1.361       .  A
N181        N182   1.328       .  A
N181       Mn184   2.249   1_556  S
N182        C186   1.361       .  A
Mn183      Cl185   2.588       .  S
Mn184      Cl185   2.568       .  S
C186        C191   1.552       .  S
C187        C188   1.556       .  S
C188       C1238   1.565       .  S
C188       C1369   1.566       .  S
C188       C1658   1.565       .  S
C189       C1189   1.566       .  S
C189       C1318   1.560       .  S
C189       C1778   1.557       .  S
C190       C1089   1.561       .  S
C190       C1178   1.566       .  S
C190       C1438   1.562       .  S
C191       C1069   1.569       .  S
C191       C1298   1.561       .  S
C191       C1398   1.558       .  S
C192       C1029   1.561       .  S
C192       C1058   1.563       .  S
C192       C1218   1.561       .  S
C193        C194   1.415       .  A
C193        C198   1.405       .  A
C193       C1878   1.481       .  S
C194        C195   1.402       .  A
C194       C2218   1.479       .  S
C195        C196   1.403       .  A
C195        H200   1.084       .  S
C196        C197   1.415       .  A
C196       C1078   1.475       .  S
C197        C198   1.404       .  A
C197       C1149   1.486       .  S
C198        H199   1.083       .  S
C201       C1018   1.567       .  S
C201       C1409   1.559       .  S
C201       C1509   1.568       .  S
C202       C1489   1.568       .  S
C202       C1618   1.558       .  S
C202       C1809   1.557       .  S
C203        C204   1.415       .  A
C203        C208   1.401       .  A
C203        C969   1.472       .  S
C204        C205   1.401       .  A
C204        C989   1.482       .  S
C205        C206   1.401       .  A
C205        H210   1.084   1_545  S
C206        C207   1.417       .  A
C206        C929   1.478       .  S
C207        C208   1.399       .  A
C207        C949   1.479       .  S
C208        H209   1.084       .  S
C211        C212   1.416       .  A
C211        C216   1.406       .  A
C211       C2029   1.483       .  S
C212        C213   1.404       .  A
C212       C2118   1.481       .  S
C213        C214   1.403       .  A
C213        H218   1.084       .  S
C214        C215   1.415       .  A
C214        C909   1.480       .  S
C215        C216   1.404       .  A
C215        C889   1.484       .  S
C216        H217   1.084       .  S
C219        C220   1.416       .  A
C219        C224   1.405       .  A
C219       C2238   1.485       .  S
C220        C221   1.404       .  A
C220       C1918   1.482       .  S
C221        C222   1.405       .  A
C221        H226   1.083       .  S
C222        C223   1.417       .  A
C222        C849   1.488       .  S
C223        C224   1.407       .  A
C223        C878   1.482       .  S
C224        H225   1.083       .  S
C227        C248   1.548       .  S
C227        C829   1.559       .  S
C227        C869   1.557       .  S
C227       C1358   1.553       .  S
N228        N229   1.328       .  A
N228        N234   1.319       .  A
N228       Mn257   2.242   1_556  S
N229        C236   1.360       .  A
N230        N232   1.319       .  A
N230        N231   1.328       .  A
N230       Mn246   2.241   1_565  S
N231        C237   1.360       .  A
N232        N233   1.327       .  A
N232       Mn257   2.250       .  S
N233        C237   1.361       .  A
N234        N235   1.324       .  A
N234       Mn246   2.241   1_566  S
N235        C236   1.360       .  A
C236        C276   1.555       .  S
C237        C273   1.556       .  S
N238        N244   1.318       .  A
N238        N239   1.326       .  A
N238       Mn268   2.228       .  S
N239        C247   1.358       .  A
N240        N241   1.329       .  A
N240        N242   1.318       .  A
N240       Mn246   2.240   1_556  S
N241        C248   1.361       .  A
N242        N243   1.321       .  A
N242       Mn268   2.223   1_556  S
N243        C248   1.357       .  A
N244        N245   1.324       .  A
N244       Mn246   2.236       .  S
N245        C247   1.358       .  A
Mn246      Cl270   2.572       .  S
C247        C287   1.544       .  S
N249        N250   1.325       .  A
N249        N255   1.320       .  A
N249       Mn257   2.236       .  S
N250        C258   1.358       .  A
N251        N253   1.321       .  A
N251        N252   1.325       .  A
N251       Mn269   2.243   1_566  S
N252        C259   1.359       .  A
N253        N254   1.329       .  A
N253       Mn257   2.250   1_556  S
N254        C259   1.360       .  A
N255        N256   1.328       .  A
N255       Mn269   2.249   1_565  S
N256        C258   1.360       .  A
Mn257      Cl270   2.581   1_565  S
C258        C277   1.550       .  S
C259        C274   1.554       .  S
N260        N261   1.328       .  A
N260        N266   1.320       .  A
N260       Mn268   2.238   1_556  S
N261        C271   1.359       .  A
N262        N263   1.324       .  A
N262        N264   1.318       .  A
N262       Mn269   2.247       .  S
N263        C272   1.362       .  A
N264        N265   1.329       .  A
N264       Mn268   2.228       .  S
N265        C272   1.357       .  A
N266        N267   1.326       .  A
N266       Mn269   2.249   1_556  S
N267        C271   1.361       .  A
Mn268      Cl270   2.575       .  S
Mn269      Cl270   2.570       .  S
C271        C275   1.547       .  S
C272        C286   1.553       .  S
C273        C789   1.559       .  S
C273        C809   1.565       .  S
C273        C918   1.567       .  S
C274        C769   1.566       .  S
C274        C998   1.563       .  S
C274       C1469   1.555       .  S
C275        C858   1.559       .  S
C275        C978   1.558       .  S
C275       C1829   1.554       .  S
C276        C718   1.562       .  S
C276        C729   1.560       .  S
C276        C758   1.563       .  S
C277        C898   1.565       .  S
C277       C1458   1.555       .  S
C277       C1698   1.566       .  S
C278        C279   1.415       .  A
C278        C283   1.404       .  A
C278       C1858   1.483       .  S
C279        C280   1.402       .  A
C279       C2278   1.478       .  S
C280        C281   1.401       .  A
C280        H285   1.084       .  S
C281        C282   1.416       .  A
C281        C778   1.482       .  S
C282        C283   1.406       .  A
C282        C749   1.479       .  S
C283        H284   1.083       .  S
C286       C1598   1.567       .  S
C286       C1738   1.555       .  S
C286       C1798   1.556       .  S
C287        C698   1.562       .  S
C287       C1338   1.556       .  S
C287       C1569   1.565       .  S
C288        C289   1.416       .  A
C288        C293   1.401       .  A
C288       C1049   1.480       .  S
C289        C290   1.403   1_655  A
C289       C1009   1.481   1_655  S
C290        C291   1.404   1_455  A
C290        H295   1.084       .  S
C291        C292   1.415       .  A
C291        C649   1.481   1_655  S
C292        C293   1.402       .  A
C292        C669   1.480       .  S
C293        H294   1.084       .  S
C296        C297   1.416       .  A
C296        C301   1.402       .  A
C296        C818   1.486       .  S
C297        C298   1.406       .  A
C297        C689   1.478       .  S
C298        C299   1.405       .  A
C298        H303   1.083       .  S
C299        C300   1.415       .  A
C299        C638   1.486       .  S
C300        C301   1.404       .  A
C300        C618   1.478       .  S
C301        H302   1.084   1_545  S
C304        C305   1.414       .  A
C304        C309   1.401       .  A
C304       C2258   1.473       .  S
C305        C306   1.408       .  A
C305       C1989   1.493       .  S
C306        C307   1.413       .  A
C306        H311   1.083       .  S
C307        C308   1.422       .  A
C307        C569   1.491       .  S
C308        C309   1.401       .  A
C308        C589   1.489       .  S
C309        H310   1.084       .  S
C312        C313   1.416       .  A
C312        C317   1.404       .  A
C312       C2058   1.487       .  S
C313        C314   1.406       .  A
C313       C2298   1.480       .  S
C314        C315   1.405       .  A
C314        H319   1.083       .  S
C315        C316   1.416       .  A
C315        C558   1.488       .  S
C316        C317   1.405       .  A
C316        C529   1.477       .  S
C317        H318   1.084       .  S
C320        C341   1.549       .  S
C320        C578   1.562       .  S
C320        C629   1.564       .  S
C320       C1638   1.564       .  S
N321        N322   1.325       .  A
N321        N327   1.318       .  A
N321       Mn350   2.241       .  S
N322        C329   1.360       .  A
N323        N325   1.319       .  A
N323        N324   1.326       .  A
N323       Mn339   2.247   1_565  S
N324        C330   1.361       .  A
N325        N326   1.329       .  A
N325       Mn350   2.248   1_565  S
N326        C330   1.361       .  A
N327        N328   1.327       .  A
N327       Mn339   2.232       .  S
N328        C329   1.359       .  A
C329        C369   1.552       .  S
C330        C370   1.558       .  S
N331        N337   1.318       .  A
N331        N332   1.329       .  A
N331       Mn361   2.236   1_565  S
N332        C340   1.359       .  A
N333        N334   1.326       .  A
N333        N335   1.320       .  A
N333       Mn339   2.235       .  S
N334        C341   1.358       .  A
N335        N336   1.326       .  A
N335       Mn361   2.247       .  S
N336        C341   1.360       .  A
N337        N338   1.322       .  A
N337       Mn339   2.231   1_565  S
N338        C340   1.358       .  A
Mn339      Cl363   2.569       .  S
C340        C366   1.551       .  S
N342        N343   1.326       .  A
N342        N348   1.320       .  A
N342       Mn350   2.243   1_465  S
N343        C351   1.360       .  A
N344        N346   1.321       .  A
N344        N345   1.328       .  A
N344       Mn362   2.251       .  S
N345        C352   1.361       .  A
N346        N347   1.328       .  A
N346       Mn350   2.252   1_455  S
N347        C352   1.360       .  A
N348        N349   1.330       .  A
N348       Mn362   2.256   1_565  S
N349        C351   1.362       .  A
Mn350      Cl363   2.579       .  S
C351        C368   1.549       .  S
C352        C380   1.548       .  S
N353        N354   1.327       .  A
N353        N359   1.320       .  A
N353       Mn361   2.244   1_455  S
N354        C364   1.359       .  A
N355        N356   1.324       .  A
N355        N357   1.320       .  A
N355       Mn362   2.249   1_565  S
N356        C365   1.359       .  A
N357        N358   1.329       .  A
N357       Mn361   2.242   1_465  S
N358        C365   1.360       .  A
N359        N360   1.328       .  A
N359       Mn362   2.249       .  S
N360        C364   1.361       .  A
Mn361      Cl363   2.584       .  S
Mn362      Cl363   2.574   1_455  S
C364        C379   1.556       .  S
C365        C367   1.552       .  S
C366        C509   1.562       .  S
C366        C609   1.559       .  S
C366        C678   1.567       .  S
C367        C538   1.564       .  S
C367        C658   1.567       .  S
C367       C1758   1.560       .  S
C368        C489   1.562       .  S
C368        C549   1.559       .  S
C368        C938   1.553       .  S
C369        C478   1.553       .  S
C369        C598   1.568       .  S
C369       C1278   1.564       .  S
C370        C409   1.565       .  S
C370        C429   1.559       .  S
C370        C449   1.567       .  S
C371        C372   1.416       .  A
C371        C376   1.406       .  A
C371       C2098   1.490       .  S
C372        C373   1.407       .  A
C372       C1898   1.480       .  S
C373        C374   1.404       .  A
C373        H378   1.084       .  S
C374        C375   1.416       .  A
C374        C458   1.488       .  S
C375        C376   1.405       .  A
C375        C518   1.480       .  S
C376        H377   1.083       .  S
C379       C1549   1.563       .  S
C379       C1678   1.567       .  S
C379       C1709   1.557       .  S
C380        C958   1.556       .  S
C380       C1249   1.553       .  S
C380       C1529   1.565       .  S
C381        C382   1.416       .  A
C381        C386   1.402       .  A
C381       C1138   1.482       .  S
C382        C383   1.405   1_655  A
C382       C1098   1.481   1_655  S
C383        C384   1.403   1_455  A
C383        H388   1.084       .  S
C384        C385   1.416       .  A
C384        C498   1.485   1_655  S
C385        C386   1.403       .  A
C385        C418   1.478       .  S
C386        H387   1.084       .  S
C389        C390   1.415       .  A
C389        C394   1.399       .  A
C389        C838   1.475       .  S
C390        C391   1.406       .  A
C390        C709   1.484       .  S
C391        C392   1.407       .  A
C391        H396   1.083   1_545  S
C392        C393   1.415       .  A
C392        C438   1.486   1_545  S
C393        C394   1.399       .  A
C393        C469   1.474       .  S
C394        H395   1.084       .  S
C397        C398   1.415       .  A
C397        C402   1.405   1_554  A
C397       C1118   1.483   1_554  S
C398        C399   1.404       .  A
C398       C1038   1.483       .  S
C399        C400   1.406       .  A
C399        H404   1.084       .  S
C400        C401   1.418       .  A
C400        C798   1.483       .  S
C401        C402   1.407   1_554  A
C401        C738   1.490   1_554  S
C402        H403   1.084       .  S
C405        C406   1.406       .  A
C405        C410   1.405       .  A
C405        H415   1.083       .  S
C406        C407   1.396       .  A
C406        C411   1.489       .  S
C407        C408   1.389       .  A
C407        H412   1.083       .  S
C408        C409   1.422       .  A
C408        H413   1.072       .  S
C409        C410   1.418       .  A
C410        H414   1.081       .  S
C411        C416   1.409       .  A
C411        C420   1.407       .  A
C416        C417   1.396       .  A
C416        H421   1.082       .  S
C417        C418   1.399       .  A
C417        H422   1.083       .  S
C418        C419   1.404       .  A
C419        C420   1.399       .  A
C419        H423   1.083       .  S
C420        H424   1.083       .  S
C425        C426   1.409       .  A
C425        C430   1.413       .  A
C425        H435   1.080   1_565  S
C426        C427   1.392       .  A
C426        C431   1.483       .  S
C427        C428   1.386       .  A
C427        H432   1.084       .  S
C428        C429   1.420       .  A
C428        H433   1.081       .  S
C429        C430   1.412       .  A
C430        H434   1.081       .  S
C431        C436   1.402       .  A
C431        C440   1.407       .  A
C436        C437   1.403   1_565  A
C436        H441   1.083       .  S
C437        C438   1.408   1_545  A
C437        H442   1.083       .  S
C438        C439   1.401       .  A
C439        C440   1.398       .  A
C439        H443   1.083       .  S
C440        H444   1.083       .  S
C445        C446   1.410       .  A
C445        C450   1.407       .  A
C445        H455   1.082       .  S
C446        C447   1.402       .  A
C446        C451   1.496       .  S
C447        C448   1.395       .  A
C447        H452   1.082       .  S
C448        C449   1.416       .  A
C448        H453   1.081       .  S
C449        C450   1.412       .  A
C450        H454   1.083       .  S
C451        C456   1.409       .  A
C451        C460   1.408       .  A
C456        C457   1.404       .  A
C456        H461   1.083       .  S
C457        C458   1.404       .  A
C457        H462   1.083       .  S
C458        C459   1.403       .  A
C459        C460   1.400       .  A
C459        H463   1.083       .  S
C460        H464   1.082       .  S
C465        C466   1.407       .  A
C465        C470   1.397       .  A
C465        H475   1.083       .  S
C466        C467   1.408       .  A
C466        C471   1.485       .  S
C467        C468   1.395       .  A
C467        H472   1.082       .  S
C468        C469   1.399       .  A
C468        H473   1.083       .  S
C469        C470   1.402       .  A
C470        H474   1.083       .  S
C471        C476   1.407       .  A
C471        C480   1.398       .  A
C476        C477   1.401       .  A
C476        H481   1.083       .  S
C477        C478   1.413       .  A
C477        H482   1.083       .  S
C478        C479   1.420       .  A
C479        C480   1.388       .  A
C479        H483   1.076       .  S
C480        H484   1.083       .  S
C485        C486   1.396       .  A
C485        C490   1.391       .  A
C485        H495   1.083       .  S
C486        C487   1.408       .  A
C486        C491   1.491       .  S
C487        C488   1.406       .  A
C487        H492   1.083   1_455  S
C488        C489   1.413       .  A
C488        H493   1.082       .  S
C489        C490   1.422       .  A
C490        H494   1.077       .  S
C491        C496   1.410       .  A
C491        C500   1.405       .  A
C496        C497   1.401       .  A
C496        H501   1.083       .  S
C497        C498   1.402       .  A
C497        H502   1.083       .  S
C498        C499   1.404       .  A
C499        C500   1.399       .  A
C499        H503   1.083       .  S
C500        H504   1.083       .  S
C505        C506   1.408       .  A
C505        C510   1.401       .  A
C505        H515   1.083       .  S
C506        C507   1.404       .  A
C506        C511   1.492       .  S
C507        C508   1.395       .  A
C507        H512   1.082       .  S
C508        C509   1.415       .  A
C508        H513   1.082       .  S
C509        C510   1.412       .  A
C510        H514   1.082       .  S
C511        C516   1.410       .  A
C511        C520   1.407       .  A
C516        C517   1.399       .  A
C516        H521   1.082       .  S
C517        C518   1.401       .  A
C517        H522   1.083       .  S
C518        C519   1.403       .  A
C519        C520   1.398       .  A
C519        H523   1.083       .  S
C520        H524   1.082       .  S
C525        C526   1.408       .  A
C525        C530   1.398       .  A
C525        H535   1.083       .  S
C526        C527   1.408       .  A
C526        C531   1.488       .  S
C527        C528   1.397       .  A
C527        H532   1.082       .  S
C528        C529   1.402       .  A
C528        H533   1.083       .  S
C529        C530   1.401       .  A
C530        H534   1.083       .  S
C531        C536   1.406       .  A
C531        C540   1.397       .  A
C536        C537   1.402       .  A
C536        H541   1.083       .  S
C537        C538   1.416       .  A
C537        H542   1.080       .  S
C538        C539   1.420       .  A
C539        C540   1.390       .  A
C539        H543   1.076       .  S
C540        H544   1.083       .  S
C545        C546   1.410       .  A
C545        C550   1.414       .  A
C545        H555   1.081       .  S
C546        C547   1.392       .  A
C546        C551   1.485       .  S
C547        C548   1.386       .  A
C547        H552   1.084       .  S
C548        C549   1.420       .  A
C548        H553   1.080       .  S
C549        C550   1.411       .  A
C550        H554   1.081       .  S
C551        C556   1.404       .  A
C551        C560   1.406       .  A
C556        C557   1.405       .  A
C556        H561   1.083       .  S
C557        C558   1.407       .  A
C557        H562   1.083       .  S
C558        C559   1.402       .  A
C559        C560   1.399       .  A
C559        H563   1.083       .  S
C560        H564   1.083       .  S
C565        C566   1.412       .  A
C565        C570   1.397       .  A
C565        H575   1.083       .  S
C566        C567   1.405       .  A
C566        C571   1.494       .  S
C567        C568   1.403       .  A
C567        H572   1.082       .  S
C568        C569   1.411       .  A
C568        H573   1.083       .  S
C569        C570   1.398       .  A
C570        H574   1.083       .  S
C571        C576   1.402       .  A
C571        C580   1.411       .  A
C576        C577   1.389       .  A
C576        H581   1.083       .  S
C577        C578   1.414       .  A
C577        H582   1.079       .  S
C578        C579   1.417       .  A
C579        C580   1.411       .  A
C579        H583   1.083       .  S
C580        H584   1.082       .  S
C585        C586   1.403       .  A
C585        C590   1.401       .  A
C585        H595   1.083       .  S
C586        C587   1.409       .  A
C586        C591   1.486       .  S
C587        C588   1.399       .  A
C587        H592   1.083       .  S
C588        C589   1.400       .  A
C588        H593   1.083       .  S
C589        C590   1.409       .  A
C590        H594   1.083       .  S
C591        C596   1.404       .  A
C591        C600   1.392       .  A
C596        C597   1.407       .  A
C596        H601   1.073       .  S
C597        C598   1.413       .  A
C597        H602   1.082       .  S
C598        C599   1.426       .  A
C599        C600   1.390       .  A
C599        H603   1.077       .  S
C600        H604   1.084       .  S
C605        C606   1.408       .  A
C605        C610   1.405       .  A
C605        H615   1.082   1_565  S
C606        C607   1.397       .  A
C606        C611   1.492       .  S
C607        C608   1.387       .  A
C607        H612   1.082       .  S
C608        C609   1.419       .  A
C608        H613   1.075       .  S
C609        C610   1.414       .  A
C610        H614   1.083       .  S
C611        C616   1.408       .  A
C611        C620   1.410       .  A
C616        C617   1.400   1_565  A
C616        H621   1.082       .  S
C617        C618   1.403       .  A
C617        H622   1.083       .  S
C618        C619   1.399   1_545  A
C619        C620   1.395       .  A
C619        H623   1.083       .  S
C620        H624   1.082       .  S
C625        C626   1.409       .  A
C625        C630   1.411       .  A
C625        H635   1.082       .  S
C626        C627   1.393       .  A
C626        C631   1.488       .  S
C627        C628   1.388       .  A
C627        H632   1.084       .  S
C628        C629   1.423       .  A
C628        H633   1.080       .  S
C629        C630   1.414       .  A
C630        H634   1.082       .  S
C631        C636   1.408       .  A
C631        C640   1.404       .  A
C636        C637   1.400       .  A
C636        H641   1.083       .  S
C637        C638   1.402       .  A
C637        H642   1.083       .  S
C638        C639   1.406       .  A
C639        C640   1.402       .  A
C639        H643   1.083       .  S
C640        H644   1.083       .  S
C645        C646   1.406       .  A
C645        C650   1.402   1_455  A
C645        H655   1.082   1_455  S
C646        C647   1.411       .  A
C646        C651   1.493       .  S
C647        C648   1.396       .  A
C647        H652   1.082       .  S
C648        C649   1.398       .  A
C648        H653   1.083       .  S
C649        C650   1.406   1_455  A
C650        H654   1.083       .  S
C651        C656   1.411       .  A
C651        C660   1.394       .  A
C656        C657   1.412       .  A
C656        H661   1.082   1_455  S
C657        C658   1.416       .  A
C657        H662   1.082       .  S
C658        C659   1.422       .  A
C659        C660   1.383       .  A
C659        H663   1.077       .  S
C660        H664   1.083       .  S
C665        C666   1.402       .  A
C665        C670   1.400       .  A
C665        H675   1.083       .  S
C666        C667   1.409       .  A
C666        C671   1.481       .  S
C667        C668   1.395       .  A
C667        H672   1.083       .  S
C668        C669   1.398       .  A
C668        H673   1.083       .  S
C669        C670   1.407       .  A
C670        H674   1.083       .  S
C671        C676   1.407       .  A
C671        C680   1.389       .  A
C676        C677   1.412       .  A
C676        H681   1.081       .  S
C677        C678   1.415       .  A
C677        H682   1.075       .  S
C678        C679   1.422       .  A
C679        C680   1.382       .  A
C679        H683   1.078       .  S
C680        H684   1.084       .  S
C685        C686   1.406       .  A
C685        C690   1.398       .  A
C685        H695   1.083       .  S
C686        C687   1.406       .  A
C686        C691   1.484       .  S
C687        C688   1.398       .  A
C687        H692   1.083       .  S
C688        C689   1.402       .  A
C688        H693   1.083       .  S
C689        C690   1.402       .  A
C690        H694   1.083       .  S
C691        C696   1.396       .  A
C691        C700   1.405       .  A
C696        C697   1.391       .  A
C696        H701   1.083       .  S
C697        C698   1.420       .  A
C697        H702   1.073       .  S
C698        C699   1.417       .  A
C699        C700   1.401       .  A
C699        H703   1.081       .  S
C700        H704   1.083       .  S
C705        C706   1.407       .  A
C705        C710   1.401   1_565  A
C705        H715   1.083       .  S
C706        C707   1.406       .  A
C706        C711   1.488       .  S
C707        C708   1.399       .  A
C707        H712   1.083       .  S
C708        C709   1.403   1_565  A
C708        H713   1.083       .  S
C709        C710   1.404       .  A
C710        H714   1.083       .  S
C711        C716   1.400       .  A
C711        C720   1.408       .  A
C716        C717   1.394       .  A
C716        H721   1.083       .  S
C717        C718   1.417       .  A
C717        H722   1.081       .  S
C718        C719   1.411       .  A
C719        C720   1.404       .  A
C719        H723   1.083       .  S
C720        H724   1.083   1_565  S
C725        C726   1.395       .  A
C725        C730   1.386       .  A
C725        H735   1.083       .  S
C726        C727   1.411       .  A
C726        C731   1.491       .  S
C727        C728   1.412       .  A
C727        H732   1.081   1_556  S
C728        C729   1.411       .  A
C728        H733   1.081       .  S
C729        C730   1.419       .  A
C730        H734   1.081       .  S
C731        C736   1.404       .  A
C731        C740   1.411       .  A
C736        C737   1.402       .  A
C736        H741   1.083       .  S
C737        C738   1.409       .  A
C737        H742   1.083   1_556  S
C738        C739   1.400       .  A
C739        C740   1.398       .  A
C739        H743   1.083       .  S
C740        H744   1.083       .  S
C745        C746   1.408       .  A
C745        C750   1.401       .  A
C745        H755   1.082       .  S
C746        C747   1.408       .  A
C746        C751   1.491       .  S
C747        C748   1.396       .  A
C747        H752   1.082       .  S
C748        C749   1.400       .  A
C748        H753   1.083       .  S
C749        C750   1.403       .  A
C750        H754   1.083       .  S
C751        C756   1.398       .  A
C751        C760   1.403       .  A
C756        C757   1.397       .  A
C756        H761   1.083       .  S
C757        C758   1.424       .  A
C757        H762   1.074       .  S
C758        C759   1.414       .  A
C759        C760   1.398       .  A
C759        H763   1.080       .  S
C760        H764   1.077       .  S
C765        C766   1.397       .  A
C765        C770   1.396       .  A
C765        H775   1.083       .  S
C766        C767   1.404       .  A
C766        C771   1.491       .  S
C767        C768   1.401       .  A
C767        H772   1.080       .  S
C768        C769   1.414       .  A
C768        H773   1.082       .  S
C769        C770   1.424       .  A
C770        H774   1.072       .  S
C771        C776   1.408       .  A
C771        C780   1.408       .  A
C776        C777   1.400       .  A
C776        H781   1.083       .  S
C777        C778   1.403       .  A
C777        H782   1.083       .  S
C778        C779   1.401       .  A
C779        C780   1.399       .  A
C779        H783   1.083       .  S
C780        H784   1.082       .  S
C785        C786   1.410       .  A
C785        C790   1.409       .  A
C785        H795   1.080       .  S
C786        C787   1.393       .  A
C786        C791   1.485       .  S
C787        C788   1.386       .  A
C787        H792   1.084       .  S
C788        C789   1.422       .  A
C788        H793   1.079       .  S
C789        C790   1.411       .  A
C790        H794   1.082       .  S
C791        C796   1.410       .  A
C791        C800   1.402       .  A
C796        C797   1.401       .  A
C796        H801   1.083       .  S
C797        C798   1.400       .  A
C797        H802   1.083       .  S
C798        C799   1.406       .  A
C799        C800   1.397       .  A
C799        H803   1.083       .  S
C800        H804   1.083       .  S
C805        C806   1.410       .  A
C805        C810   1.408       .  A
C805        H815   1.082   1_565  S
C806        C807   1.399       .  A
C806        C811   1.493       .  S
C807        C808   1.392       .  A
C807        H812   1.083       .  S
C808        C809   1.419       .  A
C808        H813   1.080       .  S
C809        C810   1.412       .  A
C810        H814   1.083       .  S
C811        C816   1.408       .  A
C811        C820   1.408       .  A
C816        C817   1.403       .  A
C816        H821   1.083       .  S
C817        C818   1.405   1_565  A
C817        H822   1.083       .  S
C818        C819   1.402   1_545  A
C819        C820   1.398       .  A
C819        H823   1.083   1_565  S
C820        H824   1.082       .  S
C825        C826   1.393       .  A
C825        C830   1.386       .  A
C825        H835   1.083       .  S
C826        C827   1.405       .  A
C826        C831   1.483       .  S
C827        C828   1.403       .  A
C827        H832   1.083       .  S
C828        C829   1.416       .  A
C828        H833   1.079       .  S
C829        C830   1.422       .  A
C830        H834   1.076       .  S
C831        C836   1.406       .  A
C831        C840   1.407       .  A
C836        C837   1.398       .  A
C836        H841   1.083       .  S
C837        C838   1.403       .  A
C837        H842   1.083       .  S
C838        C839   1.400       .  A
C839        C840   1.394       .  A
C839        H843   1.083       .  S
C840        H844   1.083       .  S
C845        C846   1.404       .  A
C845        C850   1.403       .  A
C845        H855   1.083       .  S
C846        C847   1.411       .  A
C846        C851   1.491       .  S
C847        C848   1.398       .  A
C847        H852   1.083       .  S
C848        C849   1.399       .  A
C848        H853   1.083       .  S
C849        C850   1.408       .  A
C850        H854   1.083       .  S
C851        C856   1.393       .  A
C851        C860   1.412       .  A
C856        C857   1.384       .  A
C856        H861   1.083       .  S
C857        C858   1.420       .  A
C857        H862   1.080       .  S
C858        C859   1.409       .  A
C859        C860   1.415       .  A
C859        H863   1.082       .  S
C860        H864   1.077       .  S
C865        C866   1.406       .  A
C865        C870   1.393       .  A
C865        H875   1.081       .  S
C866        C867   1.410       .  A
C866        C871   1.494       .  S
C867        C868   1.402       .  A
C867        H872   1.082       .  S
C868        C869   1.410       .  A
C868        H873   1.083       .  S
C869        C870   1.410       .  A
C870        H874   1.082       .  S
C871        C876   1.407       .  A
C871        C880   1.412       .  A
C876        C877   1.394       .  A
C876        H881   1.081       .  S
C877        C878   1.402       .  A
C877        H882   1.084       .  S
C878        C879   1.401       .  A
C879        C880   1.403       .  A
C879        H883   1.083       .  S
C880        H884   1.082       .  S
C885        C886   1.407       .  A
C885        C890   1.400       .  A
C885        H895   1.083       .  S
C886        C887   1.407       .  A
C886        C891   1.489       .  S
C887        C888   1.401       .  A
C887        H892   1.083       .  S
C888        C889   1.404       .  A
C888        H893   1.083       .  S
C889        C890   1.402       .  A
C890        H894   1.083       .  S
C891        C896   1.399       .  A
C891        C900   1.408       .  A
C896        C897   1.393       .  A
C896        H901   1.083       .  S
C897        C898   1.419       .  A
C897        H902   1.081       .  S
C898        C899   1.410       .  A
C899        C900   1.405       .  A
C899        H903   1.083       .  S
C900        H904   1.082       .  S
C905        C906   1.409       .  A
C905        C910   1.399       .  A
C905        H915   1.082       .  S
C906        C907   1.408       .  A
C906        C911   1.492       .  S
C907        C908   1.398       .  A
C907        H912   1.082       .  S
C908        C909   1.401       .  A
C908        H913   1.083       .  S
C909        C910   1.402       .  A
C910        H914   1.083       .  S
C911        C916   1.398       .  A
C911        C920   1.405       .  A
C916        C917   1.394       .  A
C916        H921   1.082       .  S
C917        C918   1.423       .  A
C917        H922   1.071       .  S
C918        C919   1.417       .  A
C919        C920   1.400       .  A
C919        H923   1.081       .  S
C920        H924   1.083       .  S
C925        C926   1.408       .  A
C925        C930   1.397       .  A
C925        H935   1.083       .  S
C926        C927   1.406   1_565  A
C926        C931   1.486       .  S
C927        C928   1.398       .  A
C927        H932   1.082       .  S
C928        C929   1.403       .  A
C928        H933   1.083       .  S
C929        C930   1.400   1_545  A
C930        H934   1.083       .  S
C931        C936   1.409       .  A
C931        C940   1.403       .  A
C936        C937   1.400       .  A
C936        H941   1.083   1_565  S
C937        C938   1.408       .  A
C937        H942   1.083       .  S
C938        C939   1.413       .  A
C939        C940   1.396       .  A
C939        H943   1.083       .  S
C940        H944   1.082       .  S
C945        C946   1.407       .  A
C945        C950   1.398       .  A
C945        H955   1.083       .  S
C946        C947   1.404       .  A
C946        C951   1.483       .  S
C947        C948   1.399       .  A
C947        H952   1.083       .  S
C948        C949   1.404       .  A
C948        H953   1.083       .  S
C949        C950   1.401       .  A
C950        H954   1.083       .  S
C951        C956   1.408       .  A
C951        C960   1.400       .  A
C956        C957   1.401       .  A
C956        H961   1.082       .  S
C957        C958   1.405       .  A
C957        H962   1.083       .  S
C958        C959   1.417       .  A
C959        C960   1.396       .  A
C959        H963   1.083       .  S
C960        H964   1.083       .  S
C965        C966   1.405       .  A
C965        C970   1.399       .  A
C965        H975   1.083       .  S
C966        C967   1.404       .  A
C966        C971   1.476       .  S
C967        C968   1.392       .  A
C967        H972   1.083       .  S
C968        C969   1.401       .  A
C968        H973   1.083       .  S
C969        C970   1.402       .  A
C970        H974   1.083       .  S
C971        C976   1.392       .  A
C971        C980   1.400       .  A
C976        C977   1.391       .  A
C976        H981   1.084       .  S
C977        C978   1.424       .  A
C977        H982   1.072       .  S
C978        C979   1.412       .  A
C979        C980   1.397       .  A
C979        H983   1.083       .  S
C980        H984   1.077       .  S
C985        C986   1.409       .  A
C985        C990   1.397       .  A
C985        H995   1.082       .  S
C986        C987   1.410       .  A
C986        C991   1.494       .  S
C987        C988   1.401   1_565  A
C987        H992   1.082       .  S
C988        C989   1.401       .  A
C988        H993   1.083       .  S
C989        C990   1.401   1_545  A
C990        H994   1.083   1_565  S
C991        C996   1.402       .  A
C991       C1000   1.410       .  A
C996        C997   1.392       .  A
C996       H1001   1.082       .  S
C997        C998   1.418       .  A
C997       H1002   1.081       .  S
C998        C999   1.409       .  A
C999       C1000   1.403       .  A
C999       H1003   1.083       .  S
C1000      H1004   1.080   1_565  S
C1005      C1006   1.409       .  A
C1005      C1010   1.399       .  A
C1005      H1015   1.083       .  S
C1006      C1007   1.405       .  A
C1006      C1011   1.487       .  S
C1007      C1008   1.397       .  A
C1007      H1012   1.083       .  S
C1008      C1009   1.404       .  A
C1008      H1013   1.083       .  S
C1009      C1010   1.401       .  A
C1010      H1014   1.083       .  S
C1011      C1016   1.394       .  A
C1011      C1020   1.406       .  A
C1016      C1017   1.390       .  A
C1016      H1021   1.083       .  S
C1017      C1018   1.423       .  A
C1017      H1022   1.074       .  S
C1018      C1019   1.417       .  A
C1019      C1020   1.403       .  A
C1019      H1023   1.079       .  S
C1020      H1024   1.082   1_455  S
C1025      C1026   1.410       .  A
C1025      C1030   1.406       .  A
C1025      H1035   1.082       .  S
C1026      C1027   1.402       .  A
C1026      C1031   1.495       .  S
C1027      C1028   1.393       .  A
C1027      H1032   1.082       .  S
C1028      C1029   1.417       .  A
C1028      H1033   1.081       .  S
C1029      C1030   1.411       .  A
C1030      H1034   1.083       .  S
C1031      C1036   1.409       .  A
C1031      C1040   1.408       .  A
C1036      C1037   1.399       .  A
C1036      H1041   1.082       .  S
C1037      C1038   1.401       .  A
C1037      H1042   1.083       .  S
C1038      C1039   1.403       .  A
C1039      C1040   1.401       .  A
C1039      H1043   1.083       .  S
C1040      H1044   1.082       .  S
C1045      C1046   1.406       .  A
C1045      C1050   1.397       .  A
C1045      H1055   1.083       .  S
C1046      C1047   1.408       .  A
C1046      C1051   1.488       .  S
C1047      C1048   1.399       .  A
C1047      H1052   1.082       .  S
C1048      C1049   1.401       .  A
C1048      H1053   1.083       .  S
C1049      C1050   1.403       .  A
C1050      H1054   1.083       .  S
C1051      C1056   1.406       .  A
C1051      C1060   1.397       .  A
C1056      C1057   1.402       .  A
C1056      H1061   1.082       .  S
C1057      C1058   1.413       .  A
C1057      H1062   1.083       .  S
C1058      C1059   1.422       .  A
C1059      C1060   1.392       .  A
C1059      H1063   1.073       .  S
C1060      H1064   1.083       .  S
C1065      C1066   1.393       .  A
C1065      C1070   1.385       .  A
C1065      H1075   1.083       .  S
C1066      C1067   1.407       .  A
C1066      C1071   1.486       .  S
C1067      C1068   1.406       .  A
C1067      H1072   1.083       .  S
C1068      C1069   1.418       .  A
C1068      H1073   1.080       .  S
C1069      C1070   1.423       .  A
C1070      H1074   1.072       .  S
C1071      C1076   1.408       .  A
C1071      C1080   1.406       .  A
C1076      C1077   1.395       .  A
C1076      H1081   1.083       .  S
C1077      C1078   1.400       .  A
C1077      H1082   1.084       .  S
C1078      C1079   1.403       .  A
C1079      C1080   1.399       .  A
C1079      H1083   1.083       .  S
C1080      H1084   1.083       .  S
C1085      C1086   1.408       .  A
C1085      C1090   1.406       .  A
C1085      H1095   1.082   1_455  S
C1086      C1087   1.395       .  A
C1086      C1091   1.486       .  S
C1087      C1088   1.387       .  A
C1087      H1092   1.083       .  S
C1088      C1089   1.420       .  A
C1088      H1093   1.077       .  S
C1089      C1090   1.414       .  A
C1090      H1094   1.083       .  S
C1091      C1096   1.405       .  A
C1091      C1100   1.409       .  A
C1096      C1097   1.399       .  A
C1096      H1101   1.083       .  S
C1097      C1098   1.405       .  A
C1097      H1102   1.083       .  S
C1098      C1099   1.400       .  A
C1099      C1100   1.397       .  A
C1099      H1103   1.083       .  S
C1100      H1104   1.083       .  S
C1105      C1106   1.398       .  A
C1105      C1110   1.393       .  A
C1105      H1115   1.083       .  S
C1106      C1107   1.407       .  A
C1106      C1111   1.490       .  S
C1107      C1108   1.405       .  A
C1107      H1112   1.082   1_556  S
C1108      C1109   1.415       .  A
C1108      H1113   1.082       .  S
C1109      C1110   1.421       .  A
C1110      H1114   1.078       .  S
C1111      C1116   1.407       .  A
C1111      C1120   1.408       .  A
C1116      C1117   1.399       .  A
C1116      H1121   1.083       .  S
C1117      C1118   1.402       .  A
C1117      H1122   1.083       .  S
C1118      C1119   1.403       .  A
C1119      C1120   1.401       .  A
C1119      H1123   1.083       .  S
C1120      H1124   1.083       .  S
C1125      C1126   1.396       .  A
C1125      C1130   1.392       .  A
C1125      H1135   1.083       .  S
C1126      C1127   1.406       .  A
C1126      C1131   1.490       .  S
C1127      C1128   1.403       .  A
C1127      H1132   1.083       .  S
C1128      C1129   1.416       .  A
C1128      H1133   1.079       .  S
C1129      C1130   1.424       .  A
C1130      H1134   1.076       .  S
C1131      C1136   1.410       .  A
C1131      C1140   1.406       .  A
C1136      C1137   1.401       .  A
C1136      H1141   1.082       .  S
C1137      C1138   1.402       .  A
C1137      H1142   1.083       .  S
C1138      C1139   1.403       .  A
C1139      C1140   1.397       .  A
C1139      H1143   1.083       .  S
C1140      H1144   1.082       .  S
C1145      C1146   1.407       .  A
C1145      C1150   1.403       .  A
C1145      H1155   1.083       .  S
C1146      C1147   1.409       .  A
C1146      C1151   1.493       .  S
C1147      C1148   1.399       .  A
C1147      H1152   1.083       .  S
C1148      C1149   1.402       .  A
C1148      H1153   1.083       .  S
C1149      C1150   1.405       .  A
C1150      H1154   1.083       .  S
C1151      C1156   1.410       .  A
C1151      C1160   1.395       .  A
C1156      C1157   1.411       .  A
C1156      H1161   1.082       .  S
C1157      C1158   1.416       .  A
C1157      H1162   1.083       .  S
C1158      C1159   1.423       .  A
C1159      C1160   1.389       .  A
C1159      H1163   1.075       .  S
C1160      H1164   1.083       .  S
C1165      C1166   1.407       .  A
C1165      C1170   1.398       .  A
C1165      H1175   1.082       .  S
C1166      C1167   1.409       .  A
C1166      C1171   1.492       .  S
C1167      C1168   1.401       .  A
C1167      H1172   1.082       .  S
C1168      C1169   1.402       .  A
C1168      H1173   1.083       .  S
C1169      C1170   1.403       .  A
C1170      H1174   1.083       .  S
C1171      C1176   1.398       .  A
C1171      C1180   1.404       .  A
C1176      C1177   1.394       .  A
C1176      H1181   1.083       .  S
C1177      C1178   1.422       .  A
C1177      H1182   1.075       .  S
C1178      C1179   1.417       .  A
C1179      C1180   1.402       .  A
C1179      H1183   1.080       .  S
C1180      H1184   1.077       .  S
C1185      C1186   1.406       .  A
C1185      C1190   1.404       .  A
C1185      H1195   1.079       .  S
C1186      C1187   1.396       .  A
C1186      C1191   1.495       .  S
C1187      C1188   1.389       .  A
C1187      H1192   1.082       .  S
C1188      C1189   1.423       .  A
C1188      H1193   1.072       .  S
C1189      C1190   1.416       .  A
C1190      H1194   1.081       .  S
C1191      C1196   1.409       .  A
C1191      C1200   1.410       .  A
C1196      C1197   1.400       .  A
C1196      H1201   1.082       .  S
C1197      C1198   1.403       .  A
C1197      H1202   1.083       .  S
C1198      C1199   1.399       .  A
C1199      C1200   1.395       .  A
C1199      H1203   1.083       .  S
C1200      H1204   1.082       .  S
C1205      C1206   1.405       .  A
C1205      C1210   1.405       .  A
C1205      H1215   1.083       .  S
C1206      C1207   1.411       .  A
C1206      C1211   1.493       .  S
C1207      C1208   1.395       .  A
C1207      H1212   1.083       .  S
C1208      C1209   1.397       .  A
C1208      H1213   1.083       .  S
C1209      C1210   1.409       .  A
C1210      H1214   1.083       .  S
C1211      C1216   1.395       .  A
C1211      C1220   1.413       .  A
C1216      C1217   1.383       .  A
C1216      H1221   1.083       .  S
C1217      C1218   1.419       .  A
C1217      H1222   1.080       .  S
C1218      C1219   1.412       .  A
C1219      C1220   1.415       .  A
C1219      H1223   1.080       .  S
C1220      H1224   1.081       .  S
C1225      C1226   1.402       .  A
C1225      C1230   1.399       .  A
C1225      H1235   1.083       .  S
C1226      C1227   1.408       .  A
C1226      C1231   1.479       .  S
C1227      C1228   1.395       .  A
C1227      H1232   1.083       .  S
C1228      C1229   1.398       .  A
C1228      H1233   1.083       .  S
C1229      C1230   1.407       .  A
C1230      H1234   1.083       .  S
C1231      C1236   1.391       .  A
C1231      C1240   1.406       .  A
C1236      C1237   1.383       .  A
C1236      H1241   1.084       .  S
C1237      C1238   1.423       .  A
C1237      H1242   1.079       .  S
C1238      C1239   1.414       .  A
C1239      C1240   1.408       .  A
C1239      H1243   1.077       .  S
C1240      H1244   1.080       .  S
C1245      C1246   1.411       .  A
C1245      C1250   1.413       .  A
C1245      H1255   1.081   1_455  S
C1246      C1247   1.392       .  A
C1246      C1251   1.481       .  S
C1247      C1248   1.381       .  A
C1247      H1252   1.084       .  S
C1248      C1249   1.419       .  A
C1248      H1253   1.081       .  S
C1249      C1250   1.410       .  A
C1250      H1254   1.081       .  S
C1251      C1256   1.403       .  A
C1251      C1260   1.407       .  A
C1256      C1257   1.402       .  A
C1256      H1261   1.083       .  S
C1257      C1258   1.407       .  A
C1257      H1262   1.083   1_455  S
C1258      C1259   1.399       .  A
C1259      C1260   1.394       .  A
C1259      H1263   1.083       .  S
C1260      H1264   1.083       .  S
C1265      C1266   1.407       .  A
C1265      C1270   1.397       .  A
C1265      H1275   1.083       .  S
C1266      C1267   1.409       .  A
C1266      C1271   1.492       .  S
C1267      C1268   1.403       .  A
C1267      H1272   1.082       .  S
C1268      C1269   1.403       .  A
C1268      H1273   1.083       .  S
C1269      C1270   1.402       .  A
C1270      H1274   1.083       .  S
C1271      C1276   1.406       .  A
C1271      C1280   1.400       .  A
C1276      C1277   1.402       .  A
C1276      H1281   1.083       .  S
C1277      C1278   1.416       .  A
C1277      H1282   1.079       .  S
C1278      C1279   1.421       .  A
C1279      C1280   1.396       .  A
C1279      H1283   1.078       .  S
C1280      H1284   1.083       .  S
C1285      C1286   1.408       .  A
C1285      C1290   1.398       .  A
C1285      H1295   1.082       .  S
C1286      C1287   1.409       .  A
C1286      C1291   1.492       .  S
C1287      C1288   1.400       .  A
C1287      H1292   1.082       .  S
C1288      C1289   1.402       .  A
C1288      H1293   1.083       .  S
C1289      C1290   1.402       .  A
C1290      H1294   1.083       .  S
C1291      C1296   1.406       .  A
C1291      C1300   1.397       .  A
C1296      C1297   1.402       .  A
C1296      H1301   1.073       .  S
C1297      C1298   1.412       .  A
C1297      H1302   1.083       .  S
C1298      C1299   1.423       .  A
C1299      C1300   1.392       .  A
C1299      H1303   1.077       .  S
C1300      H1304   1.083       .  S
C1305      C1306   1.411       .  A
C1305      C1310   1.401       .  A
C1305      H1315   1.082       .  S
C1306      C1307   1.408       .  A
C1306      C1311   1.495       .  S
C1307      C1308   1.398       .  A
C1307      H1312   1.082       .  S
C1308      C1309   1.403       .  A
C1308      H1313   1.083   1_455  S
C1309      C1310   1.401       .  A
C1310      H1314   1.083       .  S
C1311      C1316   1.410       .  A
C1311      C1320   1.405       .  A
C1316      C1317   1.402       .  A
C1316      H1321   1.082       .  S
C1317      C1318   1.407       .  A
C1317      H1322   1.083       .  S
C1318      C1319   1.414       .  A
C1319      C1320   1.396       .  A
C1319      H1323   1.082       .  S
C1320      H1324   1.081       .  S
C1325      C1326   1.405       .  A
C1325      C1330   1.397       .  A
C1325      H1335   1.083       .  S
C1326      C1327   1.409       .  A
C1326      C1331   1.485       .  S
C1327      C1328   1.397       .  A
C1327      H1332   1.083       .  S
C1328      C1329   1.399       .  A
C1328      H1333   1.083       .  S
C1329      C1330   1.405       .  A
C1330      H1334   1.083       .  S
C1331      C1336   1.396       .  A
C1331      C1340   1.408       .  A
C1336      C1337   1.386       .  A
C1336      H1341   1.083       .  S
C1337      C1338   1.421       .  A
C1337      H1342   1.078       .  S
C1338      C1339   1.414       .  A
C1339      C1340   1.403       .  A
C1339      H1343   1.082       .  S
C1340      H1344   1.081       .  S
C1345      C1346   1.403       .  A
C1345      C1350   1.399       .  A
C1345      H1355   1.083       .  S
C1346      C1347   1.409       .  A
C1346      C1351   1.484       .  S
C1347      C1348   1.397       .  A
C1347      H1352   1.083       .  S
C1348      C1349   1.400       .  A
C1348      H1353   1.083       .  S
C1349      C1350   1.407       .  A
C1350      H1354   1.083   1_556  S
C1351      C1356   1.409       .  A
C1351      C1360   1.394       .  A
C1356      C1357   1.409       .  A
C1356      H1361   1.081   1_556  S
C1357      C1358   1.412       .  A
C1357      H1362   1.081       .  S
C1358      C1359   1.418       .  A
C1359      C1360   1.385       .  A
C1359      H1363   1.081       .  S
C1360      H1364   1.083       .  S
C1365      C1366   1.408       .  A
C1365      C1370   1.406       .  A
C1365      H1375   1.083       .  S
C1366      C1367   1.396       .  A
C1366      C1371   1.491       .  S
C1367      C1368   1.390       .  A
C1367      H1372   1.083       .  S
C1368      C1369   1.422       .  A
C1368      H1373   1.071       .  S
C1369      C1370   1.415       .  A
C1370      H1374   1.083       .  S
C1371      C1376   1.409       .  A
C1371      C1380   1.407       .  A
C1376      C1377   1.397       .  A
C1376      H1381   1.082       .  S
C1377      C1378   1.401       .  A
C1377      H1382   1.083       .  S
C1378      C1379   1.403       .  A
C1379      C1380   1.401       .  A
C1379      H1383   1.083       .  S
C1380      H1384   1.082       .  S
C1385      C1386   1.406       .  A
C1385      C1390   1.400       .  A
C1385      H1395   1.083       .  S
C1386      C1387   1.406       .  A
C1386      C1391   1.484       .  S
C1387      C1388   1.396       .  A
C1387      H1392   1.083       .  S
C1388      C1389   1.401       .  A
C1388      H1393   1.083       .  S
C1389      C1390   1.404       .  A
C1390      H1394   1.083       .  S
C1391      C1396   1.406       .  A
C1391      C1400   1.395       .  A
C1396      C1397   1.405       .  A
C1396      H1401   1.082   1_556  S
C1397      C1398   1.414       .  A
C1397      H1402   1.082       .  S
C1398      C1399   1.421       .  A
C1399      C1400   1.388       .  A
C1399      H1403   1.076       .  S
C1400      H1404   1.083       .  S
C1405      C1406   1.392       .  A
C1405      C1410   1.388       .  A
C1405      H1415   1.084       .  S
C1406      C1407   1.406       .  A
C1406      C1411   1.481       .  S
C1407      C1408   1.404       .  A
C1407      H1412   1.082       .  S
C1408      C1409   1.414       .  A
C1408      H1413   1.083       .  S
C1409      C1410   1.423       .  A
C1410      H1414   1.075       .  S
C1411      C1416   1.408       .  A
C1411      C1420   1.403       .  A
C1416      C1417   1.399       .  A
C1416      H1421   1.083       .  S
C1417      C1418   1.401       .  A
C1417      H1422   1.083       .  S
C1418      C1419   1.404       .  A
C1419      C1420   1.395       .  A
C1419      H1423   1.083       .  S
C1420      H1424   1.083       .  S
C1425      C1426   1.409       .  A
C1425      C1430   1.401       .  A
C1425      H1435   1.083       .  S
C1426      C1427   1.403       .  A
C1426      C1431   1.485       .  S
C1427      C1428   1.397       .  A
C1427      H1432   1.083       .  S
C1428      C1429   1.405       .  A
C1428      H1433   1.083       .  S
C1429      C1430   1.401       .  A
C1430      H1434   1.083       .  S
C1431      C1436   1.393       .  A
C1431      C1440   1.407       .  A
C1436      C1437   1.389       .  A
C1436      H1441   1.084       .  S
C1437      C1438   1.424       .  A
C1437      H1442   1.077       .  S
C1438      C1439   1.414       .  A
C1439      C1440   1.405       .  A
C1439      H1443   1.082       .  S
C1440      H1444   1.082   1_556  S
C1445      C1446   1.411       .  A
C1445      C1450   1.393       .  A
C1445      H1455   1.083       .  S
C1446      C1447   1.403       .  A
C1446      C1451   1.485       .  S
C1447      C1448   1.399       .  A
C1447      H1452   1.083       .  S
C1448      C1449   1.407       .  A
C1448      H1453   1.083       .  S
C1449      C1450   1.397       .  A
C1450      H1454   1.083       .  S
C1451      C1456   1.394       .  A
C1451      C1460   1.411       .  A
C1456      C1457   1.381       .  A
C1456      H1461   1.083       .  S
C1457      C1458   1.418       .  A
C1457      H1462   1.080       .  S
C1458      C1459   1.411       .  A
C1459      C1460   1.410       .  A
C1459      H1463   1.081       .  S
C1460      H1464   1.081       .  S
C1465      C1466   1.395       .  A
C1465      C1470   1.385       .  A
C1465      H1475   1.083       .  S
C1466      C1467   1.410       .  A
C1466      C1471   1.486       .  S
C1467      C1468   1.410       .  A
C1467      H1472   1.081   1_556  S
C1468      C1469   1.412       .  A
C1468      H1473   1.081       .  S
C1469      C1470   1.418       .  A
C1470      H1474   1.081       .  S
C1471      C1476   1.411       .  A
C1471      C1480   1.403   1_556  A
C1476      C1477   1.396       .  A
C1476      H1481   1.083       .  S
C1477      C1478   1.398       .  A
C1477      H1482   1.083       .  S
C1478      C1479   1.408   1_556  A
C1479      C1480   1.400       .  A
C1479      H1483   1.083       .  S
C1480      H1484   1.083       .  S
C1485      C1486   1.407       .  A
C1485      C1490   1.405       .  A
C1485      H1495   1.083       .  S
C1486      C1487   1.394       .  A
C1486      C1491   1.488       .  S
C1487      C1488   1.390       .  A
C1487      H1492   1.083       .  S
C1488      C1489   1.423       .  A
C1488      H1493   1.071       .  S
C1489      C1490   1.417       .  A
C1490      H1494   1.081       .  S
C1491      C1496   1.406       .  A
C1491      C1500   1.409       .  A
C1496      C1497   1.399       .  A
C1496      H1501   1.083       .  S
C1497      C1498   1.404       .  A
C1497      H1502   1.083       .  S
C1498      C1499   1.401       .  A
C1499      C1500   1.399       .  A
C1499      H1503   1.083       .  S
C1500      H1504   1.082       .  S
C1505      C1506   1.395       .  A
C1505      C1510   1.391       .  A
C1505      H1515   1.083       .  S
C1506      C1507   1.408       .  A
C1506      C1511   1.491       .  S
C1507      C1508   1.408       .  A
C1507      H1512   1.081       .  S
C1508      C1509   1.414       .  A
C1508      H1513   1.083       .  S
C1509      C1510   1.424       .  A
C1510      H1514   1.076       .  S
C1511      C1516   1.409       .  A
C1511      C1520   1.405       .  A
C1516      C1517   1.402       .  A
C1516      H1521   1.083       .  S
C1517      C1518   1.402       .  A
C1517      H1522   1.083       .  S
C1518      C1519   1.406       .  A
C1519      C1520   1.401       .  A
C1519      H1523   1.083       .  S
C1520      H1524   1.083       .  S
C1525      C1526   1.396       .  A
C1525      C1530   1.391       .  A
C1525      H1535   1.083       .  S
C1526      C1527   1.405       .  A
C1526      C1531   1.491       .  S
C1527      C1528   1.405       .  A
C1527      H1532   1.080       .  S
C1528      C1529   1.415       .  A
C1528      H1533   1.083       .  S
C1529      C1530   1.422       .  A
C1530      H1534   1.072       .  S
C1531      C1536   1.407       .  A
C1531      C1540   1.408       .  A
C1536      C1537   1.396       .  A
C1536      H1541   1.083       .  S
C1537      C1538   1.401       .  A
C1537      H1542   1.083       .  S
C1538      C1539   1.404       .  A
C1539      C1540   1.403       .  A
C1539      H1543   1.083       .  S
C1540      H1544   1.082       .  S
C1545      C1546   1.393       .  A
C1545      C1550   1.388       .  A
C1545      H1555   1.084       .  S
C1546      C1547   1.405       .  A
C1546      C1551   1.483       .  S
C1547      C1548   1.405       .  A
C1547      H1552   1.076       .  S
C1548      C1549   1.413       .  A
C1548      H1553   1.083       .  S
C1549      C1550   1.424       .  A
C1550      H1554   1.076       .  S
C1551      C1556   1.407       .  A
C1551      C1560   1.404       .  A
C1556      C1557   1.398       .  A
C1556      H1561   1.083       .  S
C1557      C1558   1.401       .  A
C1557      H1562   1.083       .  S
C1558      C1559   1.404       .  A
C1559      C1560   1.398       .  A
C1559      H1563   1.083       .  S
C1560      H1564   1.083       .  S
C1565      C1566   1.411       .  A
C1565      C1570   1.409       .  A
C1565      H1575   1.082       .  S
C1566      C1567   1.397       .  A
C1566      C1571   1.495       .  S
C1567      C1568   1.386       .  A
C1567      H1572   1.082       .  S
C1568      C1569   1.420       .  A
C1568      H1573   1.077       .  S
C1569      C1570   1.414       .  A
C1570      H1574   1.083       .  S
C1571      C1576   1.408       .  A
C1571      C1580   1.411       .  A
C1576      C1577   1.401       .  A
C1576      H1581   1.082       .  S
C1577      C1578   1.404       .  A
C1577      H1582   1.083       .  S
C1578      C1579   1.398       .  A
C1579      C1580   1.396       .  A
C1579      H1583   1.083       .  S
C1580      H1584   1.082       .  S
C1585      C1586   1.405       .  A
C1585      C1590   1.403       .  A
C1585      H1595   1.083       .  S
C1586      C1587   1.409       .  A
C1586      C1591   1.489       .  S
C1587      C1588   1.396       .  A
C1587      H1592   1.083       .  S
C1588      C1589   1.399       .  A
C1588      H1593   1.083       .  S
C1589      C1590   1.406       .  A
C1590      H1594   1.083       .  S
C1591      C1596   1.393       .  A
C1591      C1600   1.410       .  A
C1596      C1597   1.384       .  A
C1596      H1601   1.083       .  S
C1597      C1598   1.422       .  A
C1597      H1602   1.081       .  S
C1598      C1599   1.414       .  A
C1599      C1600   1.413       .  A
C1599      H1603   1.076       .  S
C1600      H1604   1.082       .  S
C1605      C1606   1.406       .  A
C1605      C1610   1.394       .  A
C1605      H1615   1.083       .  S
C1606      C1607   1.405       .  A
C1606      C1611   1.477       .  S
C1607      C1608   1.396       .  A
C1607      H1612   1.083       .  S
C1608      C1609   1.402       .  A
C1608      H1613   1.083       .  S
C1609      C1610   1.400       .  A
C1610      H1614   1.083       .  S
C1611      C1616   1.394       .  A
C1611      C1620   1.405       .  A
C1616      C1617   1.386       .  A
C1616      H1621   1.083       .  S
C1617      C1618   1.421       .  A
C1617      H1622   1.076       .  S
C1618      C1619   1.412       .  A
C1619      C1620   1.402       .  A
C1619      H1623   1.083       .  S
C1620      H1624   1.081   1_455  S
C1625      C1626   1.409       .  A
C1625      C1630   1.401       .  A
C1625      H1635   1.082       .  S
C1626      C1627   1.409       .  A
C1626      C1631   1.489       .  S
C1627      C1628   1.389       .  A
C1627      H1632   1.082       .  S
C1628      C1629   1.397       .  A
C1628      H1633   1.084       .  S
C1629      C1630   1.403       .  A
C1630      H1634   1.083       .  S
C1631      C1636   1.407       .  A
C1631      C1640   1.396       .  A
C1636      C1637   1.404       .  A
C1636      H1641   1.082       .  S
C1637      C1638   1.417       .  A
C1637      H1642   1.082       .  S
C1638      C1639   1.418       .  A
C1639      C1640   1.382       .  A
C1639      H1643   1.069       .  S
C1640      H1644   1.082       .  S
C1645      C1646   1.409       .  A
C1645      C1650   1.400       .  A
C1645      H1655   1.082       .  S
C1646      C1647   1.409       .  A
C1646      C1651   1.493       .  S
C1647      C1648   1.398       .  A
C1647      H1652   1.082       .  S
C1648      C1649   1.401       .  A
C1648      H1653   1.083       .  S
C1649      C1650   1.403       .  A
C1650      H1654   1.083       .  S
C1651      C1656   1.402       .  A
C1651      C1660   1.407       .  A
C1656      C1657   1.396       .  A
C1656      H1661   1.082       .  S
C1657      C1658   1.419       .  A
C1657      H1662   1.081       .  S
C1658      C1659   1.413       .  A
C1659      C1660   1.401       .  A
C1659      H1663   1.081       .  S
C1660      H1664   1.082       .  S
C1665      C1666   1.408       .  A
C1665      C1670   1.399       .  A
C1665      H1675   1.082       .  S
C1666      C1667   1.408       .  A
C1666      C1671   1.490       .  S
C1667      C1668   1.399       .  A
C1667      H1672   1.083       .  S
C1668      C1669   1.402       .  A
C1668      H1673   1.083       .  S
C1669      C1670   1.402       .  A
C1670      H1674   1.083       .  S
C1671      C1676   1.395       .  A
C1671      C1680   1.405       .  A
C1676      C1677   1.392       .  A
C1676      H1681   1.083       .  S
C1677      C1678   1.425       .  A
C1677      H1682   1.076       .  S
C1678      C1679   1.416       .  A
C1679      C1680   1.405       .  A
C1679      H1683   1.080       .  S
C1680      H1684   1.078   1_455  S
C1685      C1686   1.408       .  A
C1685      C1690   1.397       .  A
C1685      H1695   1.082       .  S
C1686      C1687   1.410       .  A
C1686      C1691   1.493       .  S
C1687      C1688   1.399       .  A
C1687      H1692   1.082       .  S
C1688      C1689   1.401       .  A
C1688      H1693   1.083       .  S
C1689      C1690   1.402       .  A
C1690      H1694   1.083       .  S
C1691      C1696   1.406       .  A
C1691      C1700   1.397       .  A
C1696      C1697   1.402       .  A
C1696      H1701   1.079       .  S
C1697      C1698   1.416       .  A
C1697      H1702   1.081       .  S
C1698      C1699   1.422       .  A
C1699      C1700   1.392       .  A
C1699      H1703   1.070       .  S
C1700      H1704   1.082       .  S
C1705      C1706   1.406       .  A
C1705      C1710   1.403       .  A
C1705      H1715   1.082       .  S
C1706      C1707   1.394       .  A
C1706      C1711   1.481       .  S
C1707      C1708   1.388       .  A
C1707      H1712   1.084       .  S
C1708      C1709   1.422       .  A
C1708      H1713   1.075       .  S
C1709      C1710   1.414       .  A
C1710      H1714   1.083       .  S
C1711      C1716   1.405       .  A
C1711      C1720   1.407       .  A
C1716      C1717   1.396       .  A
C1716      H1721   1.083       .  S
C1717      C1718   1.403       .  A
C1717      H1722   1.083       .  S
C1718      C1719   1.400       .  A
C1719      C1720   1.396       .  A
C1719      H1723   1.083       .  S
C1720      H1724   1.083       .  S
C1725      C1726   1.414       .  A
C1725      C1730   1.401       .  A
C1725      H1735   1.081       .  S
C1726      C1727   1.410       .  A
C1726      C1731   1.501       .  S
C1727      C1728   1.394       .  A
C1727      H1732   1.079       .  S
C1728      C1729   1.399       .  A
C1728      H1733   1.083       .  S
C1729      C1730   1.400       .  A
C1730      H1734   1.083       .  S
C1731      C1736   1.412       .  A
C1731      C1740   1.408       .  A
C1736      C1737   1.400       .  A
C1736      H1741   1.081       .  S
C1737      C1738   1.408       .  A
C1737      H1742   1.083       .  S
C1738      C1739   1.410       .  A
C1739      C1740   1.393       .  A
C1739      H1743   1.083       .  S
C1740      H1744   1.079       .  S
C1745      C1746   1.408       .  A
C1745      C1750   1.399       .  A
C1745      H1755   1.083       .  S
C1746      C1747   1.406       .  A
C1746      C1751   1.488       .  S
C1747      C1748   1.399       .  A
C1747      H1752   1.083       .  S
C1748      C1749   1.403       .  A
C1748      H1753   1.083       .  S
C1749      C1750   1.402       .  A
C1750      H1754   1.083       .  S
C1751      C1756   1.397       .  A
C1751      C1760   1.406       .  A
C1756      C1757   1.392       .  A
C1756      H1761   1.083       .  S
C1757      C1758   1.422       .  A
C1757      H1762   1.075       .  S
C1758      C1759   1.414       .  A
C1759      C1760   1.403       .  A
C1759      H1763   1.083       .  S
C1760      H1764   1.082   1_565  S
C1765      C1766   1.409       .  A
C1765      C1770   1.397       .  A
C1765      H1775   1.083       .  S
C1766      C1767   1.404       .  A
C1766      C1771   1.488       .  S
C1767      C1768   1.403       .  A
C1767      H1772   1.083       .  S
C1768      C1769   1.408       .  A
C1768      H1773   1.083   1_556  S
C1769      C1770   1.400       .  A
C1770      H1774   1.083       .  S
C1771      C1776   1.394       .  A
C1771      C1780   1.410       .  A
C1776      C1777   1.385       .  A
C1776      H1781   1.083       .  S
C1777      C1778   1.420       .  A
C1777      H1782   1.082       .  S
C1778      C1779   1.411       .  A
C1779      C1780   1.412       .  A
C1779      H1783   1.081       .  S
C1780      H1784   1.081   1_556  S
C1785      C1786   1.407       .  A
C1785      C1790   1.401       .  A
C1785      H1795   1.083       .  S
C1786      C1787   1.408       .  A
C1786      C1791   1.491       .  S
C1787      C1788   1.399       .  A
C1787      H1792   1.083       .  S
C1788      C1789   1.402       .  A
C1788      H1793   1.083       .  S
C1789      C1790   1.403       .  A
C1790      H1794   1.083       .  S
C1791      C1796   1.405       .  A
C1791      C1800   1.398       .  A
C1796      C1797   1.402       .  A
C1796      H1801   1.082       .  S
C1797      C1798   1.414       .  A
C1797      H1802   1.082       .  S
C1798      C1799   1.421       .  A
C1799      C1800   1.394       .  A
C1799      H1803   1.075       .  S
C1800      H1804   1.083       .  S
C1805      C1806   1.394       .  A
C1805      C1810   1.384       .  A
C1805      H1815   1.083       .  S
C1806      C1807   1.408       .  A
C1806      C1811   1.484       .  S
C1807      C1808   1.405       .  A
C1807      H1812   1.081       .  S
C1808      C1809   1.414       .  A
C1808      H1813   1.082       .  S
C1809      C1810   1.422       .  A
C1810      H1814   1.078       .  S
C1811      C1816   1.409       .  A
C1811      C1820   1.404       .  A
C1816      C1817   1.396       .  A
C1816      H1821   1.083       .  S
C1817      C1818   1.399       .  A
C1817      H1822   1.083       .  S
C1818      C1819   1.403       .  A
C1819      C1820   1.397       .  A
C1819      H1823   1.083       .  S
C1820      H1824   1.083       .  S
C1825      C1826   1.410       .  A
C1825      C1830   1.402       .  A
C1825      H1835   1.083   1_556  S
C1826      C1827   1.402       .  A
C1826      C1831   1.487       .  S
C1827      C1828   1.393       .  A
C1827      H1832   1.082       .  S
C1828      C1829   1.415       .  A
C1828      H1833   1.083       .  S
C1829      C1830   1.406       .  A
C1830      H1834   1.083       .  S
C1831      C1836   1.407       .  A
C1831      C1840   1.408       .  A
C1836      C1837   1.397       .  A
C1836      H1841   1.083       .  S
C1837      C1838   1.402       .  A
C1837      H1842   1.083       .  S
C1838      C1839   1.402       .  A
C1839      C1840   1.399       .  A
C1839      H1843   1.083       .  S
C1840      H1844   1.082       .  S
C1845      C1846   1.398       .  A
C1845      C1850   1.394       .  A
C1845      H1855   1.083       .  S
C1846      C1847   1.406       .  A
C1846      C1851   1.493       .  S
C1847      C1848   1.403       .  A
C1847      H1852   1.082       .  S
C1848      C1849   1.417       .  A
C1848      H1853   1.079       .  S
C1849      C1850   1.423       .  A
C1850      H1854   1.076       .  S
C1851      C1856   1.409       .  A
C1851      C1860   1.408       .  A
C1856      C1857   1.400       .  A
C1856      H1861   1.082       .  S
C1857      C1858   1.402       .  A
C1857      H1862   1.083       .  S
C1858      C1859   1.403       .  A
C1859      C1860   1.399       .  A
C1859      H1863   1.083       .  S
C1860      H1864   1.082       .  S
C1865      C1866   1.397       .  A
C1865      C1870   1.392       .  A
C1865      H1875   1.083       .  S
C1866      C1867   1.406       .  A
C1866      C1871   1.484       .  S
C1867      C1868   1.403       .  A
C1867      H1872   1.082       .  S
C1868      C1869   1.414       .  A
C1868      H1873   1.083       .  S
C1869      C1870   1.419       .  A
C1870      H1874   1.078       .  S
C1871      C1876   1.406       .  A
C1871      C1880   1.406       .  A
C1876      C1877   1.399       .  A
C1876      H1881   1.083       .  S
C1877      C1878   1.403       .  A
C1877      H1882   1.083       .  S
C1878      C1879   1.403       .  A
C1879      C1880   1.399       .  A
C1879      H1883   1.083       .  S
C1880      H1884   1.083       .  S
C1885      C1886   1.393       .  A
C1885      C1890   1.384       .  A
C1885      H1895   1.083       .  S
C1886      C1887   1.411       .  A
C1886      C1891   1.489       .  S
C1887      C1888   1.410       .  A
C1887      H1892   1.082       .  S
C1888      C1889   1.415       .  A
C1888      H1893   1.082       .  S
C1889      C1890   1.422       .  A
C1890      H1894   1.076       .  S
C1891      C1896   1.411       .  A
C1891      C1900   1.404       .  A
C1896      C1897   1.398       .  A
C1896      H1901   1.083       .  S
C1897      C1898   1.399       .  A
C1897      H1902   1.083       .  S
C1898      C1899   1.406       .  A
C1899      C1900   1.399       .  A
C1899      H1903   1.083       .  S
C1900      H1904   1.083       .  S
C1905      C1906   1.400       .  A
C1905      C1910   1.395       .  A
C1905      H1915   1.082       .  S
C1906      C1907   1.405       .  A
C1906      C1911   1.493       .  S
C1907      C1908   1.401       .  A
C1907      H1912   1.083       .  S
C1908      C1909   1.418       .  A
C1908      H1913   1.081       .  S
C1909      C1910   1.421       .  A
C1910      H1914   1.073       .  S
C1911      C1916   1.408       .  A
C1911      C1920   1.410       .  A
C1916      C1917   1.398       .  A
C1916      H1921   1.082       .  S
C1917      C1918   1.403       .  A
C1917      H1922   1.083       .  S
C1918      C1919   1.402       .  A
C1919      C1920   1.401       .  A
C1919      H1923   1.083       .  S
C1920      H1924   1.082       .  S
C1925      C1926   1.408       .  A
C1925      C1930   1.405       .  A
C1925      H1935   1.083       .  S
C1926      C1927   1.397       .  A
C1926      C1931   1.486       .  S
C1927      C1928   1.388       .  A
C1927      H1932   1.083       .  S
C1928      C1929   1.419       .  A
C1928      H1933   1.079       .  S
C1929      C1930   1.412       .  A
C1930      H1934   1.083       .  S
C1931      C1936   1.407       .  A
C1931      C1940   1.407       .  A
C1936      C1937   1.401       .  A
C1936      H1941   1.083       .  S
C1937      C1938   1.403       .  A
C1937      H1942   1.083       .  S
C1938      C1939   1.401       .  A
C1939      C1940   1.396       .  A
C1939      H1943   1.083       .  S
C1940      H1944   1.083       .  S
C1945      C1946   1.410       .  A
C1945      C1950   1.406       .  A
C1945      H1955   1.081       .  S
C1946      C1947   1.394       .  A
C1946      C1951   1.485       .  S
C1947      C1948   1.383       .  A
C1947      H1952   1.083       .  S
C1948      C1949   1.421       .  A
C1948      H1953   1.079       .  S
C1949      C1950   1.411       .  A
C1950      H1954   1.082       .  S
C1951      C1956   1.404       .  A
C1951      C1960   1.410       .  A
C1956      C1957   1.397       .  A
C1956      H1961   1.082       .  S
C1957      C1958   1.404       .  A
C1957      H1962   1.083       .  S
C1958      C1959   1.398       .  A
C1959      C1960   1.396       .  A
C1959      H1963   1.083       .  S
C1960      H1964   1.083       .  S
C1965      C1966   1.403       .  A
C1965      C1970   1.400       .  A
C1965      H1975   1.083       .  S
C1966      C1967   1.394       .  A
C1966      C1971   1.483       .  S
C1967      C1968   1.394       .  A
C1967      H1972   1.084       .  S
C1968      C1969   1.423       .  A
C1968      H1973   1.072       .  S
C1969      C1970   1.417       .  A
C1970      H1974   1.081       .  S
C1971      C1976   1.405       .  A
C1971      C1980   1.407       .  A
C1976      C1977   1.396       .  A
C1976      H1981   1.083       .  S
C1977      C1978   1.402       .  A
C1977      H1982   1.083       .  S
C1978      C1979   1.403       .  A
C1979      C1980   1.401       .  A
C1979      H1983   1.083       .  S
C1980      H1984   1.083       .  S
C1985      C1986   1.409       .  A
C1985      C1990   1.408       .  A
C1985      H1995   1.082       .  S
C1986      C1987   1.412       .  A
C1986      C1991   1.504       .  S
C1987      C1988   1.398       .  A
C1987      H1992   1.082       .  S
C1988      C1989   1.399       .  A
C1988      H1993   1.083       .  S
C1989      C1990   1.409       .  A
C1990      H1994   1.083       .  S
C1991      C1996   1.399       .  A
C1991      C2000   1.413       .  A
C1996      C1997   1.390       .  A
C1996      H2001   1.082       .  S
C1997      C1998   1.418       .  A
C1997      H2002   1.082       .  S
C1998      C1999   1.412       .  A
C1999      C2000   1.416       .  A
C1999      H2003   1.081       .  S
C2000      H2004   1.080       .  S
C2005      C2006   1.407       .  A
C2005      C2010   1.400       .  A
C2005      H2015   1.083       .  S
C2006      C2007   1.406       .  A
C2006      C2011   1.488       .  S
C2007      C2008   1.402       .  A
C2007      H2012   1.083       .  S
C2008      C2009   1.404       .  A
C2008      H2013   1.083       .  S
C2009      C2010   1.403       .  A
C2010      H2014   1.083       .  S
C2011      C2016   1.407       .  A
C2011      C2020   1.401       .  A
C2016      C2017   1.402       .  A
C2016      H2021   1.083       .  S
C2017      C2018   1.411       .  A
C2017      H2022   1.083       .  S
C2018      C2019   1.417       .  A
C2019      C2020   1.397       .  A
C2019      H2023   1.081       .  S
C2020      H2024   1.083       .  S
C2025      C2026   1.403       .  A
C2025      C2030   1.402       .  A
C2025      H2035   1.083       .  S
C2026      C2027   1.408       .  A
C2026      C2031   1.485       .  S
C2027      C2028   1.396       .  A
C2027      H2032   1.083       .  S
C2028      C2029   1.399       .  A
C2028      H2033   1.083       .  S
C2029      C2030   1.407       .  A
C2030      H2034   1.083       .  S
C2031      C2036   1.393       .  A
C2031      C2040   1.411       .  A
C2036      C2037   1.383       .  A
C2036      H2041   1.084       .  S
C2037      C2038   1.419       .  A
C2037      H2042   1.081       .  S
C2038      C2039   1.412       .  A
C2039      C2040   1.412       .  A
C2039      H2043   1.081       .  S
C2040      H2044   1.082       .  S
C2045      C2046   1.406       .  A
C2045      C2050   1.398       .  A
C2045      H2055   1.081       .  S
C2046      C2047   1.412       .  A
C2046      C2051   1.499       .  S
C2047      C2048   1.405       .  A
C2047      H2052   1.082       .  S
C2048      C2049   1.410       .  A
C2048      H2053   1.083       .  S
C2049      C2050   1.414       .  A
C2050      H2054   1.082       .  S
C2051      C2056   1.410       .  A
C2051      C2060   1.410       .  A
C2056      C2057   1.401       .  A
C2056      H2061   1.081       .  S
C2057      C2058   1.404       .  A
C2057      H2062   1.083       .  S
C2058      C2059   1.402       .  A
C2059      C2060   1.401       .  A
C2059      H2063   1.083       .  S
C2060      H2064   1.082       .  S
C2065      C2066   1.411       .  A
C2065      C2070   1.397       .  A
C2065      H2075   1.082       .  S
C2066      C2067   1.409       .  A
C2066      C2071   1.499       .  S
C2067      C2068   1.404       .  A
C2067      H2072   1.082       .  S
C2068      C2069   1.404       .  A
C2068      H2073   1.083       .  S
C2069      C2070   1.400       .  A
C2070      H2074   1.083       .  S
C2071      C2076   1.399       .  A
C2071      C2080   1.409       .  A
C2076      C2077   1.391       .  A
C2076      H2081   1.083       .  S
C2077      C2078   1.421       .  A
C2077      H2082   1.075       .  S
C2078      C2079   1.413       .  A
C2079      C2080   1.407       .  A
C2079      H2083   1.083       .  S
C2080      H2084   1.079       .  S
C2085      C2086   1.392       .  A
C2085      C2090   1.386       .  A
C2085      H2095   1.084       .  S
C2086      C2087   1.411       .  A
C2086      C2091   1.487       .  S
C2087      C2088   1.414       .  A
C2087      H2092   1.081       .  S
C2088      C2089   1.411       .  A
C2088      H2093   1.081       .  S
C2089      C2090   1.421       .  A
C2090      H2094   1.080       .  S
C2091      C2096   1.410       .  A
C2091      C2100   1.402       .  A
C2096      C2097   1.400       .  A
C2096      H2101   1.083       .  S
C2097      C2098   1.400       .  A
C2097      H2102   1.083       .  S
C2098      C2099   1.409       .  A
C2099      C2100   1.402       .  A
C2099      H2103   1.083       .  S
C2100      H2104   1.083       .  S
C2105      C2106   1.398       .  A
C2105      C2110   1.393       .  A
C2105      H2115   1.082       .  S
C2106      C2107   1.406       .  A
C2106      C2111   1.496       .  S
C2107      C2108   1.403       .  A
C2107      H2112   1.082       .  S
C2108      C2109   1.416       .  A
C2108      H2113   1.079       .  S
C2109      C2110   1.423       .  A
C2110      H2114   1.074       .  S
C2111      C2116   1.409       .  A
C2111      C2120   1.410       .  A
C2116      C2117   1.399       .  A
C2116      H2121   1.082       .  S
C2117      C2118   1.402       .  A
C2117      H2122   1.083       .  S
C2118      C2119   1.401       .  A
C2119      C2120   1.399       .  A
C2119      H2123   1.083       .  S
C2120      H2124   1.082       .  S
C2125      C2126   1.407       .  A
C2125      C2130   1.404       .  A
C2125      H2135   1.083       .  S
C2126      C2127   1.405       .  A
C2126      C2131   1.488       .  S
C2127      C2128   1.397       .  A
C2127      H2132   1.083       .  S
C2128      C2129   1.403       .  A
C2128      H2133   1.083       .  S
C2129      C2130   1.405       .  A
C2130      H2134   1.083       .  S
C2131      C2136   1.399       .  A
C2131      C2140   1.408       .  A
C2136      C2137   1.397       .  A
C2136      H2141   1.083       .  S
C2137      C2138   1.419       .  A
C2137      H2142   1.082       .  S
C2138      C2139   1.410       .  A
C2139      C2140   1.404       .  A
C2139      H2143   1.083       .  S
C2140      H2144   1.083       .  S
C2145      C2146   1.404       .  A
C2145      C2150   1.402       .  A
C2145      H2155   1.076       .  S
C2146      C2147   1.398       .  A
C2146      C2151   1.485       .  S
C2147      C2148   1.397       .  A
C2147      H2152   1.083       .  S
C2148      C2149   1.422       .  A
C2148      H2153   1.081       .  S
C2149      C2150   1.408       .  A
C2150      H2154   1.083       .  S
C2151      C2156   1.406       .  A
C2151      C2160   1.406       .  A
C2156      C2157   1.397       .  A
C2156      H2161   1.083       .  S
C2157      C2158   1.401       .  A
C2157      H2162   1.083       .  S
C2158      C2159   1.405       .  A
C2159      C2160   1.402       .  A
C2159      H2163   1.083       .  S
C2160      H2164   1.083       .  S
C2165      C2166   1.411       .  A
C2165      C2170   1.398       .  A
C2165      H2175   1.083       .  S
C2166      C2167   1.403       .  A
C2166      C2171   1.490       .  S
C2167      C2168   1.403       .  A
C2167      H2172   1.083       .  S
C2168      C2169   1.409       .  A
C2168      H2173   1.083       .  S
C2169      C2170   1.399       .  A
C2170      H2174   1.083       .  S
C2171      C2176   1.395       .  A
C2171      C2180   1.411       .  A
C2176      C2177   1.386       .  A
C2176      H2181   1.083       .  S
C2177      C2178   1.420       .  A
C2177      H2182   1.082       .  S
C2178      C2179   1.411       .  A
C2179      C2180   1.413       .  A
C2179      H2183   1.081       .  S
C2180      H2184   1.081       .  S
C2185      C2186   1.404       .  A
C2185      C2190   1.399       .  A
C2185      H2195   1.083       .  S
C2186      C2187   1.405       .  A
C2186      C2191   1.477       .  S
C2187      C2188   1.395       .  A
C2187      H2192   1.083       .  S
C2188      C2189   1.401       .  A
C2188      H2193   1.083       .  S
C2189      C2190   1.404       .  A
C2190      H2194   1.083       .  S
C2191      C2196   1.394       .  A
C2191      C2200   1.401       .  A
C2196      C2197   1.394       .  A
C2196      H2201   1.084       .  S
C2197      C2198   1.423       .  A
C2197      H2202   1.071       .  S
C2198      C2199   1.416       .  A
C2199      C2200   1.397       .  A
C2199      H2203   1.081       .  S
C2200      H2204   1.083       .  S
C2205      C2206   1.404       .  A
C2205      C2210   1.402       .  A
C2205      H2215   1.083       .  S
C2206      C2207   1.396       .  A
C2206      C2211   1.488       .  S
C2207      C2208   1.392       .  A
C2207      H2212   1.083       .  S
C2208      C2209   1.423       .  A
C2208      H2213   1.069       .  S
C2209      C2210   1.418       .  A
C2210      H2214   1.081       .  S
C2211      C2216   1.407       .  A
C2211      C2220   1.407       .  A
C2216      C2217   1.399       .  A
C2216      H2221   1.083       .  S
C2217      C2218   1.402       .  A
C2217      H2222   1.083       .  S
C2218      C2219   1.402       .  A
C2219      C2220   1.398       .  A
C2219      H2223   1.083       .  S
C2220      H2224   1.082       .  S
C2225      C2226   1.397       .  A
C2225      C2230   1.390       .  A
C2225      H2235   1.083       .  S
C2226      C2227   1.410       .  A
C2226      C2231   1.492       .  S
C2227      C2228   1.410       .  A
C2227      H2232   1.082       .  S
C2228      C2229   1.411       .  A
C2228      H2233   1.083       .  S
C2229      C2230   1.422       .  A
C2230      H2234   1.077       .  S
C2231      C2236   1.408       .  A
C2231      C2240   1.407       .  A
C2236      C2237   1.398       .  A
C2236      H2241   1.082       .  S
C2237      C2238   1.403       .  A
C2237      H2242   1.083       .  S
C2238      C2239   1.404       .  A
C2239      C2240   1.403       .  A
C2239      H2243   1.083       .  S
C2240      H2244   1.083       .  S
C2245      C2246   1.395       .  A
C2245      C2250   1.380       .  A
C2245      H2255   1.083       .  S
C2246      C2247   1.409       .  A
C2246      C2251   1.487       .  S
C2247      C2248   1.408       .  A
C2247      H2252   1.080       .  S
C2248      C2249   1.414       .  A
C2248      H2253   1.082       .  S
C2249      C2250   1.418       .  A
C2250      H2254   1.079       .  S
C2251      C2256   1.409       .  A
C2251      C2260   1.407       .  A
C2256      C2257   1.390       .  A
C2256      H2261   1.082       .  S
C2257      C2258   1.396       .  A
C2257      H2262   1.084       .  S
C2258      C2259   1.404       .  A
C2259      C2260   1.401       .  A
C2259      H2263   1.083       .  S
C2260      H2264   1.082       .  S
C2265      C2266   1.393       .  A
C2265      C2270   1.384       .  A
C2265      H2275   1.084       .  S
C2266      C2267   1.406       .  A
C2266      C2271   1.482       .  S
C2267      C2268   1.406       .  A
C2267      H2272   1.081       .  S
C2268      C2269   1.416       .  A
C2268      H2273   1.083       .  S
C2269      C2270   1.422       .  A
C2270      H2274   1.076       .  S
C2271      C2276   1.407       .  A
C2271      C2280   1.405       .  A
C2276      C2277   1.394       .  A
C2276      H2281   1.083       .  S
C2277      C2278   1.399       .  A
C2277      H2282   1.083       .  S
C2278      C2279   1.405       .  A
C2279      C2280   1.400       .  A
C2279      H2283   1.083       .  S
C2280      H2284   1.083       .  S
C2285      C2286   1.406       .  A
C2285      C2290   1.408       .  A
C2285      H2295   1.081       .  S
C2286      C2287   1.391       .  A
C2286      C2291   1.481       .  S
C2287      C2288   1.387       .  A
C2287      H2292   1.084       .  S
C2288      C2289   1.423       .  A
C2288      H2293   1.073       .  S
C2289      C2290   1.416       .  A
C2290      H2294   1.083       .  S
C2291      C2296   1.405       .  A
C2291      C2300   1.405       .  A
C2296      C2297   1.402       .  A
C2296      H2301   1.083       .  S
C2297      C2298   1.404       .  A
C2297      H2302   1.083       .  S
C2298      C2299   1.402       .  A
C2299      C2300   1.397       .  A
C2299      H2303   1.083       .  S
C2300      H2304   1.083       .  S
C2305      C2306   1.407       .  A
C2305      C2310   1.409       .  A
C2305      H2315   1.083       .  S
C2306      C2307   1.393       .  A
C2306      C2311   1.486       .  S
C2307      C2308   1.388       .  A
C2307      H2312   1.084       .  S
C2308      C2309   1.424       .  A
C2308      H2313   1.074       .  S
C2309      C2310   1.418       .  A
C2310      H2314   1.080       .  S
C2311      C2316   1.406       .  A
C2311      C2320   1.407       .  A
C2316      C2317   1.401       .  A
C2316      H2321   1.083       .  S
C2317      C2318   1.404       .  A
C2317      H2322   1.083       .  S
C2318      C2319   1.402       .  A
C2319      C2320   1.398       .  A
C2319      H2323   1.083       .  S
C2320      H2324   1.083       .  S
