geometry optimzed in LAMMPS
_audit_creation_date              2020-11-30 
_audit_creation_method            'lammps2cif' 
_symmetry_space_group_name_H-M    'P1' 
_symmetry_Int_Tables_number       1 
_symmetry_cell_setting            triclinic 
loop_ 
_symmetry_equiv_pos_as_xyz 
  x,y,z 
_cell_length_a                    22.9416936317394 
_cell_length_b                    22.480020936263056 
_cell_length_c                    21.59593050934829 
_cell_angle_alpha                 86.95328857536828 
_cell_angle_beta                  85.81887036306688 
_cell_angle_gamma                 87.09192292693136 
loop_ 
_atom_site_label 
_atom_site_type_symbol 
_atom_site_fract_x 
_atom_site_fract_y 
_atom_site_fract_z 
_atom_site_charge 
C1          C  0.39276333  0.66455698  0.62635816     0.04240
C2          C  0.43075690  0.70373179  0.45824723     0.49190
N3          N  0.43769754  0.60905225  0.44907253     0.08080
C4          C  0.71073892  0.48532923  0.46178498     0.00200
H5          H  0.55642368  0.45909529  0.26339419     0.13570
C6          C  0.48138435  0.32716540  0.38366676    -0.00150
Co7        Co  0.56262264  0.58872045  0.44189343     0.74180
N8          N  0.58677345  0.50615964  0.34000572    -0.19330
Co9        Co  0.60052770  0.44395480  0.41399390     0.74070
C10         C  0.49661429  0.34744697  0.31971608     0.49290
N11         N  0.40695086  0.44581566  0.45772623     0.07690
N12         N  0.54513041  0.39252751  0.37780530     0.07800
N13         N  0.67608193  0.56996918  0.50174148    -0.40170
H14         H  0.52286975  0.71470611  0.41829332     0.13560
N15         N  0.57375003  0.56160322  0.35332241     0.08090
N16         N  0.60443269  0.38614467  0.49296872     0.07830
C17         C  0.61940368  0.29238236  0.50325301     0.49430
N18         N  0.38762707  0.49406392  0.48562298    -0.18780
C19         C  0.57560254  0.64613453  0.55719985     0.00300
N20         N  0.40128651  0.65407425  0.46063722    -0.39890
N21         N  0.64581006  0.34452295  0.49412830    -0.40110
C22         C  0.56065162  0.61792114  0.61758203     0.49200
N23         N  0.63450419  0.54373206  0.47639206     0.08070
N24         N  0.45774948  0.48093875  0.59686096    -0.18800
N25         N  0.48669465  0.62935168  0.42246536    -0.19300
N26         N  0.46703023  0.42581933  0.58203042     0.07710
H27         H  0.48409151  0.52076825  0.68083590     0.13600
H28         H  0.52661416  0.27758422  0.54006597     0.13640
N29         N  0.65371358  0.49313669  0.45427548    -0.19350
N30         N  0.50345428  0.36922718  0.41302379    -0.18960
N31         N  0.50114255  0.59326869  0.55848578     0.08080
C32         C  0.51038917  0.54462664  0.28811456     0.49470
C33         C  0.33063525  0.49005565  0.50112702    -0.00210
N34         N  0.55549741  0.36488044  0.51778051    -0.18960
H35         H  0.44560408  0.30114583  0.40276327     0.13620
N36         N  0.53330461  0.58617517  0.31861594    -0.40180
H37         H  0.30630810  0.51785278  0.53441344     0.13610
C38         C  0.52256315  0.43138792  0.65774692     0.49310
C39         C  0.48402924  0.68899008  0.42149750     0.00290
Co40       Co  0.44316035  0.54501944  0.52396426     0.73820
N41         N  0.36356858  0.41311169  0.44701682    -0.39900
C42         C  0.72603175  0.54418309  0.47795025     0.49580
N43         N  0.50899064  0.59612504  0.61690907    -0.39890
Co44       Co  0.47990786  0.40120411  0.49361173     0.73890
C45         C  0.56274167  0.30692593  0.53265951    -0.00220
C46         C  0.55472604  0.49677690  0.29155342     0.00220
N47         N  0.54271488  0.61739361  0.52377331    -0.19310
N48         N  0.54533074  0.37627397  0.32072766    -0.40070
H49         H  0.73871806  0.44912135  0.44359844     0.13580
C50         C  0.48467364  0.48446568  0.65052321    -0.00190
Cl51       Cl  0.52105052  0.49493226  0.46768428    -0.43190
C52         C  0.32074200  0.42857777  0.48868055     0.49340
H53         H  0.61586699  0.66454021  0.53880496     0.13550
N54         N  0.50070817  0.39526500  0.62018404    -0.39900
C55         C  0.68066339  0.36473165  0.64560207     0.04240
C56         C  0.35185296  0.33467647  0.32408121     0.04240
C57         C  0.69125253  0.64233322  0.32984373     0.04240
C58         C  0.35651758  0.60217650  0.32725105     0.04240
C59         C  0.66423033  0.31166651  0.33844563     0.04240
C60         C  0.37276464  0.32882749  0.63286762     0.04240
C61         C  0.69428334  0.63425755  0.64044752     0.04240
C62         C  0.29208156  0.23551175  0.97337161     0.07300
C63         C  0.23944246  0.26853814  0.96962938     0.07290
C64         C  0.26982268  0.94370616  0.23718628     0.07300
C65         C  0.26810911  0.00779673  0.24432505     0.07290
C66         C  0.04822228  0.20821925  0.24646044     0.07300
C67         C  0.98561245  0.20112221  0.25891886     0.07290
C68         C  0.47932011  0.23008206  0.23402807     0.07300
C69         C  0.54194594  0.23367382  0.23353906     0.07290
C70         C  0.30055977  0.25240429  0.49779090     0.07300
C71         C  0.26011093  0.21277697  0.48700467     0.07290
C72         C  0.27636569  0.47524546  0.23564171     0.07300
C73         C  0.25288938  0.46964807  0.17972186     0.07290
C74         C  0.29586166  0.77400232  0.97176564     0.07300
C75         C  0.26303806  0.72924380  0.95615969     0.07290
C76         C  0.78070063  0.23972471  0.00988539     0.07300
C77         C  0.75098680  0.19277172  0.99395075     0.07290
C78         C  0.99088195  0.27136376  0.74483459     0.07300
C79         C  0.05266738  0.27954466  0.73966773     0.07290
C80         C  0.78538272  0.46548569  0.23365730     0.07300
C81         C  0.73097729  0.47498878  0.26415712     0.07290
C82         C  0.32813882  0.49800197  0.69334962     0.07300
C83         C  0.27338213  0.50536366  0.72346396     0.07290
C84         C  0.89608129  0.63962880  0.81145415     0.04240
C85         C  0.95156078  0.48462953  0.75460049     0.49190
N86         N  0.95259108  0.45626190  0.85051304     0.08080
C87         C  0.21372959  0.46500681  0.97524974     0.00200
H88         H  0.05909685  0.27312812  0.01474127     0.13570
C89         C  0.96712721  0.37707612  0.14869837    -0.00150
Co90       Co  0.07628599  0.45395527  0.87113508     0.74180
N91         N  0.09244170  0.35041976  0.96092206    -0.19330
Co92       Co  0.09770318  0.41718238  0.02318637     0.74070
C93         C  0.98774746  0.31682807  0.13531472     0.49290
N94         N  0.90315096  0.45298899  0.02186739     0.07690
N95         N  0.03604306  0.37602001  0.07771426     0.07800
N96         N  0.18779041  0.51279913  0.88809716    -0.40170
H97         H  0.04715730  0.45767026  0.73719997     0.13560
N98         N  0.08292430  0.36731285  0.90351506     0.08090
N99         N  0.09489152  0.48835117  0.08216613     0.07830
C100        C  0.10137068  0.47745712  0.17966901     0.49430
N101        N  0.88955836  0.48335900  0.97086608    -0.18780
C102        C  0.09568534  0.56666904  0.80431346     0.00300
N103        N  0.91860388  0.47055093  0.80552894    -0.39890
N104        N  0.13201444  0.48310194  0.12498090    -0.40110
C105        C  0.07614772  0.62375987  0.82699372     0.49200
N106        N  0.14247864  0.48751193  0.91779544     0.08070
N107        N  0.95922634  0.59014942  0.97874037    -0.18800
N108        N  0.00456681  0.43839017  0.82659719    -0.19300
N109        N  0.96382543  0.57202772  0.03642859     0.07710
H110        H  0.99076967  0.67298965  0.93276773     0.13600
H111        H  0.00544710  0.50232358  0.19965376     0.13640
N112        N  0.15650307  0.46138598  0.97030627    -0.19350
N113        N  0.99112013  0.40673236  0.10054600    -0.18960
N114        N  0.01656155  0.56340443  0.86300212     0.08080
C115        C  0.01936247  0.30086998  0.92626367     0.49470
C116        C  0.83294350  0.50006897  0.97712928    -0.00210
N117        N  0.04328371  0.50569815  0.10661669    -0.18960
H118        H  0.92926179  0.39318738  0.17664278     0.13620
N119        N  0.04379020  0.33505877  0.88135119    -0.40180
H120        H  0.81289397  0.53511278  0.94831053     0.13610
C121        C  0.02139646  0.64513960  0.02587917     0.49310
C122        C  0.00646320  0.45162134  0.76500829     0.00290
Co123      Co  0.95174789  0.52455357  0.91494828     0.73820
N124        N  0.85622646  0.44139681  0.05824433    -0.39900
C125        C  0.23420641  0.48437363  0.91240187     0.49660
N126        N  0.02292877  0.62012332  0.85318991    -0.39890
Co127      Co  0.97191525  0.48557226  0.06623344     0.73890
C128        C  0.04448972  0.50481516  0.16841804    -0.00220
C129        C  0.06074210  0.30164107  0.97362340     0.00220
N130        N  0.06101616  0.53289988  0.83919834    -0.19310
N131        N  0.03750840  0.32112030  0.10076883    -0.40070
H132        H  0.23800718  0.44194981  0.01118231     0.13580
C133        C  0.98771062  0.64179116  0.97198878    -0.00190
Cl134      Cl  0.02380953  0.46956704  0.96865690    -0.43190
C135        C  0.81721515  0.48437016  0.04234402     0.49340
H136        H  0.13821181  0.55133123  0.78538508     0.13550
N137        N  0.99591918  0.60652854  0.06552891    -0.39900
C138        C  0.84659311  0.29263849  0.16645288     0.04240
C139        C  0.19502130  0.35847483  0.80739419     0.04240
C140        C  0.20308114  0.67142139  0.79835309     0.04240
C141        C  0.86879765  0.34436422  0.87597590     0.04240
C142        C  0.87145810  0.60599062  0.14953668     0.04240
C143        C  0.76327328  0.49381821  0.73649609     0.07300
C144        C  0.79230024  0.49947820  0.78928578     0.07290
C145        C  0.17482387  0.62179435  0.08838103     0.04240
C146        C  0.16262935  0.32412402  0.14507467     0.04240
C147        C  0.28102099  0.96330588  0.72525691     0.07300
C148        C  0.28303164  0.02841606  0.72643857     0.07290
C149        C  0.54476702  0.72504773  0.24887675     0.07300
C150        C  0.48176517  0.72050220  0.24973055     0.07290
C151        C  0.53526519  0.26166650  0.70141338     0.07300
C152        C  0.53711974  0.21592389  0.74665286     0.07290
C153        C  0.68535126  0.15448493  0.83226728     0.04240
C154        C  0.32985808  0.09334887  0.97880679     0.49190
N155        N  0.41740952  0.07039226  0.99528479     0.08080
C156        C  0.51944611  0.78803471  0.99336117     0.00200
H157        H  0.51330535  0.96343781  0.17472590     0.13570
C158        C  0.67198236  0.99029462  0.10822680    -0.00150
Co159      Co  0.42221665  0.94250790  0.98896047     0.74180
N160        N  0.47926264  0.91383150  0.10212441    -0.19330
Co161      Co  0.55255084  0.89621411  0.04148269     0.74070
C162        C  0.64184565  0.97316757  0.16824522     0.49290
N163        N  0.57763134  0.09688708  0.01426191     0.07690
N164        N  0.59712844  0.94298256  0.09620139     0.07800
N165        N  0.43350511  0.81453212  0.95901756    -0.40170
H166        H  0.29999788  0.00078960  0.00390447     0.13560
N167        N  0.42754343  0.92167337  0.07994747     0.08090
N168        N  0.62222267  0.89017674  0.97622504     0.07830
C169        C  0.71010213  0.86673721  0.98697637     0.49430
N170        N  0.52874530  0.11369664  0.98934590    -0.18780
C171        C  0.37369417  0.96779678  0.86226407     0.00300
N172        N  0.38152255  0.11620705  0.98683717    -0.39890
N173        N  0.65823702  0.84365013  0.98033016    -0.40110
C174        C  0.40636027  0.98640887  0.80395796     0.49200
N175        N  0.46277132  0.86245067  0.96306790     0.08070
N176        N  0.56300043  0.04696811  0.87318430    -0.18800
N177        N  0.38822136  0.02229345  0.01003843    -0.19300
N178        N  0.61425423  0.04153364  0.89612742     0.07710
H179        H  0.53341492  0.99694200  0.79835954     0.13600
H180        H  0.74001011  0.95947681  0.96317746     0.13640
N181        N  0.51305555  0.84700769  0.98534006    -0.19350
N182        N  0.63035125  0.98369692  0.07064108    -0.18960
N183        N  0.44652149  0.01630799  0.87861788     0.08080
C184        C  0.42387636  0.98394854  0.15166704     0.49470
C185        C  0.52537685  0.17261204  0.97922845    -0.00210
N186        N  0.65108335  0.93859613  0.96186838    -0.18960
H187        H  0.70797463  0.01911849  0.09743494     0.13620
N188        N  0.39282414  0.95824338  0.11243148    -0.40180
H189        H  0.49528234  0.19462719  0.94796022     0.13610
C190        C  0.62383010  0.98234595  0.82167132     0.49310
C191        C  0.33114995  0.03466105  0.00820408     0.00290
Co192      Co  0.48917182  0.06387540  0.93301825     0.73820
N193        N  0.60805807  0.14370112  0.01969027    -0.39900
C194        C  0.46037753  0.77070665  0.99204688     0.49580
N195        N  0.44025616  0.02846122  0.81933133    -0.39890
Co196      Co  0.61845083  0.01775996  0.98597276     0.73890
C197        C  0.70822551  0.92603482  0.95970528    -0.00220
C198        C  0.47783340  0.94892499  0.15127929     0.00220
N199        N  0.41282352  0.97505700  0.90260187    -0.19310
N200        N  0.60634074  0.93110244  0.15508844    -0.40070
H201        H  0.55192451  0.76666684  0.02229234     0.13580
C202        C  0.56734639  0.01301515  0.82298311    -0.00190
Cl203      Cl  0.52045310  0.98019746  0.98757544    -0.43190
C204        C  0.58487296  0.18768365  0.98394249     0.49340
H205        H  0.33750158  0.93887592  0.87029082     0.13550
N206        N  0.65202245  0.00874513  0.86283587    -0.39900
C207        C  0.68795177  0.80525243  0.14775424     0.04240
C208        C  0.38872862  0.83673840  0.80860482     0.04240
C209        C  0.36991661  0.15278250  0.81919877     0.04240
C210        C  0.68998154  0.82182251  0.82883100     0.04240
C211        C  0.35993082  0.80702196  0.13894637     0.04240
C212        C  0.54033762  0.74897852  0.76570840     0.07300
C213        C  0.54202125  0.71670302  0.71478927     0.07290
C214        C  0.36108801  0.14204116  0.13794309     0.04240
C215        C  0.66582906  0.12331614  0.15792446     0.04240
C216        C  0.03278595  0.67109362  0.20371347     0.07300
C217        C  0.02932386  0.71573407  0.24487215     0.07290
C218        C  0.77299775  0.93330162  0.24031992     0.07300
C219        C  0.77345057  0.99805009  0.24210937     0.07290
C220        C  0.81335870  0.23687966  0.48730330     0.07300
C221        C  0.77036515  0.28221651  0.48552940     0.07290
C222        C  0.27354769  0.68475454  0.48938459     0.07300
C223        C  0.22929372  0.72889883  0.48778730     0.07290
C224        C  0.85070208  0.12011132  0.34726787     0.04240
C225        C  0.82617635  0.08194920  0.51089228     0.49190
N226        N  0.91885339  0.06965901  0.50214617     0.08080
C227        C  0.03133210  0.79120463  0.49979790     0.00200
H228        H  0.04560172  0.96287307  0.68888574     0.13570
C229        C  0.18095690  0.03396656  0.58192990    -0.00150
Co230      Co  0.93686403  0.94257392  0.50322984     0.74180
N231        N  0.00917625  0.92286934  0.61012104    -0.19330
Co232      Co  0.07546011  0.90692039  0.54031397     0.74070
C233        C  0.15767961  0.01629290  0.64418311     0.49290
N234        N  0.07391331  0.10271156  0.49967967     0.07690
N235        N  0.12199772  0.96462508  0.58073007     0.07800
N236        N  0.95696624  0.82635647  0.44631299    -0.40170
H237        H  0.81362839  0.98803723  0.54893189     0.13560
N238        N  0.95553565  0.92937599  0.59373085     0.08090
N239        N  0.13873058  0.90216834  0.46554900     0.07830
C240        C  0.23115492  0.88777702  0.46340398     0.49430
N241        N  0.02760752  0.12189158  0.47131268    -0.18780
C242        C  0.87565845  0.93771496  0.38739104     0.00300
N243        N  0.87659762  0.11037136  0.50113448    -0.39890
N244        N  0.18017675  0.86060790  0.46789345    -0.40110
C245        C  0.89753395  0.95499974  0.32458969     0.49200
N246        N  0.98414070  0.87027455  0.46731169     0.08070
N247        N  0.04804777  0.05086425  0.35738440    -0.18800
N248        N  0.89859467  0.01962750  0.52687291    -0.19300
N249        N  0.10137537  0.04118510  0.37436236     0.07710
H250        H  0.00987570  0.01427013  0.27828195     0.13600
H251        H  0.24709677  0.98246628  0.42888856     0.13640
N252        N  0.02973224  0.85059786  0.49648293    -0.19350
N253        N  0.14565266  0.00806283  0.54811799    -0.18960
N254        N  0.93471682  0.00751155  0.38689101     0.08080
C255        C  0.95683979  0.99220788  0.66595791     0.49470
C256        C  0.02554855  0.18129495  0.46764138    -0.00210
N257        N  0.16070990  0.95216015  0.44291474    -0.18960
H258        H  0.20551803  0.07175228  0.56563160     0.13620
N259        N  0.92349307  0.96562784  0.62968406    -0.40180
H260        H  0.99640887  0.20853087  0.43936223     0.13610
C261        C  0.09635851  0.97732936  0.30368129     0.49310
C262        C  0.84134232  0.02568834  0.54140622     0.00290
Co263      Co  0.98176735  0.06570689  0.42728534     0.73820
N264        N  0.10130959  0.14709724  0.51959812    -0.39900
C265        C  0.97385749  0.77846704  0.48078605     0.49580
N266        N  0.92388859  0.00564794  0.32844285    -0.39890
Co267      Co  0.12107632  0.02957854  0.46487385     0.73890
C268        C  0.21862337  0.94529832  0.43339971    -0.00220
C269        C  0.01048599  0.95592680  0.66082974     0.00220
N270        N  0.91135741  0.96435208  0.42027175    -0.19310
N271        N  0.13201699  0.96561654  0.63936351    -0.40070
H272        H  0.05997992  0.76346940  0.52817496     0.13580
C273        C  0.04507730  0.01756892  0.30718674    -0.00190
Cl274      Cl  0.02884003  0.98621483  0.48388043    -0.43190
C275        C  0.08339117  0.19460708  0.48504724     0.49340
H276        H  0.85195881  0.89942218  0.40438363     0.13550
N277        N  0.13113336  0.00205218  0.33983862    -0.39900
C278        C  0.88793556  0.80793589  0.31529346     0.04240
C279        C  0.15624746  0.81422133  0.32301417     0.04240
C280        C  0.19388415  0.84564695  0.62708700     0.04240
C281        C  0.89061359  0.15366691  0.65027277     0.04240
C282        C  0.86835834  0.82312707  0.62477582     0.04240
C283        C  0.75545009  0.71910021  0.47115424     0.07300
C284        C  0.79721443  0.75651088  0.48353808     0.07290
C285        C  0.18948902  0.14638637  0.34321100     0.04240
C286        C  0.16962883  0.16006163  0.65621257     0.04240
C287        C  0.02937757  0.78847201  0.69476199     0.07300
C288        C  0.04003837  0.74083835  0.73500971     0.07290
C289        C  0.77919940  0.02079953  0.73312845     0.07300
C290        C  0.78221538  0.95712987  0.72372607     0.07290
C291        C  0.82064034  0.69473994  0.98880902     0.07300
C292        C  0.76806352  0.72883926  0.98866056     0.07290
C293        C  0.91472305  0.80498006  0.66893075    -0.06540
C294        C  0.96670855  0.80236604  0.68182461    -0.08100
C295        C  0.84042354  0.88322853  0.64361777    -0.06540
C296        C  0.81697219  0.92513263  0.67344411    -0.08100
C297        C  0.82324050  0.78568868  0.59962675    -0.06540
C298        C  0.80562028  0.76990702  0.54997820    -0.08100
C299        C  0.84421623  0.11324461  0.68289467    -0.06540
C300        C  0.81689196  0.06777174  0.70068493    -0.08100
C301        C  0.12821093  0.83988034  0.64274963    -0.06540
C302        C  0.07999426  0.82124601  0.66304624    -0.08100
C303        C  0.83639322  0.77835058  0.43022821    -0.06540
C304        C  0.86322666  0.79022981  0.37993843    -0.08100
C305        C  0.11970499  0.06473296  0.66375892    -0.06540
C306        C  0.12447368  0.11732823  0.65691772    -0.08100
C307        C  0.12016699  0.18926873  0.42980628    -0.06540
C308        C  0.14745516  0.15512933  0.39515482    -0.08100
C309        C  0.90798580  0.81688181  0.57028868    -0.06540
C310        C  0.93557925  0.78368327  0.53489833    -0.08100
C311        C  0.95656307  0.05628369  0.65170163    -0.06540
C312        C  0.93605052  0.10594902  0.63719519    -0.08100
C313        C  0.21815046  0.88379359  0.57570323    -0.06540
C314        C  0.24416060  0.89449469  0.52585376    -0.08100
C315        C  0.09300849  0.91358155  0.31928945    -0.06540
C316        C  0.11187129  0.86345621  0.33490986    -0.08100
C317        C  0.93437699  0.90614817  0.30449730    -0.06540
C318        C  0.93060870  0.85349816  0.31265146    -0.08100
C319        C  0.83111682  0.08071982  0.39947044    -0.06540
C320        C  0.80851834  0.07117006  0.45110345    -0.08100
C321        C  0.20151686  0.75146912  0.42751968    -0.06540
C322        C  0.17970848  0.77792131  0.38075869    -0.08100
C323        C  0.21526096  0.75916408  0.54848378    -0.06540
C324        C  0.21176022  0.78764373  0.59681411    -0.08100
C325        C  0.83027330  0.17740397  0.37817242    -0.06540
C326        C  0.82669787  0.20603695  0.42653579    -0.08100
C327        C  0.84136666  0.21466725  0.54735845    -0.06540
C328        C  0.86486610  0.18914682  0.59347718    -0.08100
C329        C  0.81273347  0.88743439  0.26660783    -0.06540
C330        C  0.84049971  0.84135226  0.28217733    -0.08100
C331        C  0.80846283  0.03936487  0.27487580    -0.06540
C332        C  0.82481797  0.08485214  0.29858455    -0.08100
C333        C  0.08229197  0.74630808  0.26424964    -0.06540
C334        C  0.12226717  0.77380670  0.28470604    -0.08100
C335        C  0.97058667  0.73643559  0.26796680    -0.06540
C336        C  0.92355091  0.75975583  0.28540042    -0.08100
C337        C  0.71098034  0.09152478  0.19528327    -0.06540
C338        C  0.73632248  0.04479316  0.21332555    -0.08100
C339        C  0.73149579  0.86093547  0.78676594    -0.06540
C340        C  0.75224336  0.90799391  0.76228874    -0.08100
C341        C  0.72056493  0.78492970  0.88267759    -0.06540
C342        C  0.74312650  0.75673684  0.92834566    -0.08100
C343        C  0.64484951  0.78635482  0.80063509    -0.06540
C344        C  0.59630381  0.76972026  0.78831063    -0.08100
C345        C  0.43063854  0.78693181  0.79430457    -0.06540
C346        C  0.48147121  0.76732319  0.79023286    -0.08100
C347        C  0.73854479  0.74106856  0.05328104    -0.06540
C348        C  0.72017993  0.75774273  0.10648174    -0.08100
C349        C  0.73582752  0.89151492  0.21056099    -0.06540
C350        C  0.71717256  0.84517564  0.19043816    -0.08100
C351        C  0.61257851  0.02888757  0.18417746    -0.06540
C352        C  0.62047237  0.07992335  0.16673495    -0.08100
C353        C  0.40392699  0.09476750  0.12120928    -0.06540
C354        C  0.42553242  0.04657268  0.13694898    -0.08100
C355        C  0.43714692  0.77547629  0.05441312    -0.06540
C356        C  0.40941760  0.80355912  0.09386702    -0.08100
C357        C  0.62736070  0.91922220  0.83284104    -0.06540
C358        C  0.64976787  0.87089627  0.84679170    -0.08100
C359        C  0.32916256  0.09063691  0.91392358    -0.06540
C360        C  0.35811300  0.10847972  0.86833680    -0.08100
C361        C  0.43865741  0.93339299  0.78676010    -0.06540
C362        C  0.43161645  0.88225585  0.80269873    -0.08100
C363        C  0.71253452  0.86941351  0.05136343    -0.06540
C364        C  0.68813987  0.84996982  0.09877245    -0.08100
C365        C  0.71155900  0.09635140  0.80519029    -0.06540
C366        C  0.73814021  0.05446997  0.77748038    -0.08100
C367        C  0.63957581  0.15555539  0.88201555    -0.06540
C368        C  0.61196325  0.18145834  0.92318382    -0.08100
C369        C  0.48180183  0.18729845  0.77566023    -0.06540
C370        C  0.43392479  0.16771317  0.79789110    -0.08100
C371        C  0.59683369  0.19791552  0.76764526    -0.06540
C372        C  0.64638939  0.18646205  0.78645999    -0.08100
C373        C  0.39343474  0.77203234  0.18726879    -0.06540
C374        C  0.43870674  0.75436665  0.21237903    -0.08100
C375        C  0.58277336  0.76301564  0.20348556    -0.06540
C376        C  0.62694576  0.78535719  0.17515110    -0.08100
C377        C  0.23980768  0.92341183  0.69924520    -0.06540
C378        C  0.22019509  0.87872209  0.67705929    -0.08100
C379        C  0.21552521  0.12340543  0.68963715    -0.06540
C380        C  0.24197223  0.07607160  0.70473305    -0.08100
C381        C  0.32355141  0.07026803  0.75124032    -0.06540
C382        C  0.34275362  0.11607793  0.77207793    -0.08100
C383        C  0.32079032  0.91437504  0.74784869    -0.06540
C384        C  0.34601584  0.86706017  0.76604345    -0.08100
C385        C  0.09062675  0.65634185  0.17236093    -0.06540
C386        C  0.13649768  0.64596653  0.14112503    -0.08100
C387        C  0.84920503  0.65609499  0.10611734    -0.06540
C388        C  0.84077584  0.67639886  0.05238249    -0.08100
C389        C  0.93147586  0.62150821  0.17098430    -0.06540
C390        C  0.97796844  0.64175541  0.18653804    -0.08100
C391        C  0.83353593  0.40083421  0.85556318    -0.06540
C392        C  0.80920189  0.44525507  0.82948540    -0.08100
C393        C  0.10429586  0.72305252  0.74708853    -0.06540
C394        C  0.15580516  0.70709061  0.76051454    -0.08100
C395        C  0.10052577  0.41467672  0.19099630    -0.06540
C396        C  0.11966575  0.37080056  0.16434690    -0.08100
C397        C  0.08405927  0.63153986  0.02270035    -0.06540
C398        C  0.13025602  0.61379462  0.04366149    -0.08100
C399        C  0.86410416  0.56132858  0.10496998    -0.06540
C400        C  0.83148485  0.53304575  0.07708066    -0.08100
C401        C  0.95944817  0.32320904  0.93832800    -0.06540
C402        C  0.91454354  0.34752172  0.92022153    -0.08100
C403        C  0.16632329  0.64987220  0.84968095    -0.06540
C404        C  0.11726722  0.64211350  0.86564337    -0.08100
C405        C  0.23957663  0.43108883  0.87942490    -0.06540
C406        C  0.20786545  0.39987559  0.85310353    -0.08100
C407        C  0.89051179  0.29951604  0.11628634    -0.06540
C408        C  0.94179316  0.29541256  0.10410829    -0.08100
C409        C  0.88059524  0.65449639  0.88039177    -0.06540
C410        C  0.85487046  0.67295609  0.92988229    -0.08100
C411        C  0.93655859  0.68746160  0.78057325    -0.06540
C412        C  0.98508456  0.70962803  0.76320301    -0.08100
C413        C  0.84131091  0.60878735  0.79674237    -0.06540
C414        C  0.81515602  0.56085836  0.79851273    -0.08100
C415        C  0.93386229  0.59030307  0.78613449    -0.06540
C416        C  0.95195228  0.54835066  0.75512667    -0.08100
C417        C  0.25013867  0.56607269  0.74603921    -0.06540
C418        C  0.23191015  0.61539304  0.76684902    -0.08100
C419        C  0.24124549  0.44837045  0.73747328    -0.06540
C420        C  0.22536160  0.39751894  0.75621259    -0.08100
C421        C  0.81941737  0.52082917  0.21975998    -0.06540
C422        C  0.83817882  0.57019678  0.20068390    -0.08100
C423        C  0.80721626  0.40433415  0.21098390    -0.06540
C424        C  0.82373887  0.35411741  0.19117911    -0.08100
C425        C  0.13622725  0.20888511  0.68718934    -0.06540
C426        C  0.09452871  0.23923837  0.70772034    -0.08100
C427        C  0.95913191  0.22673680  0.71145222    -0.06540
C428        C  0.92392596  0.19513149  0.68816312    -0.08100
C429        C  0.94710984  0.30311234  0.78624799    -0.06540
C430        C  0.90511328  0.31973430  0.82115624    -0.08100
C431        C  0.13365931  0.34596647  0.78716859    -0.06540
C432        C  0.08990804  0.32334489  0.76755326    -0.08100
C433        C  0.69507553  0.13763225  0.09416648    -0.06540
C434        C  0.72083547  0.15685552  0.04547568    -0.08100
C435        C  0.74449315  0.18407450  0.92585580    -0.06540
C436        C  0.72953639  0.17929657  0.87192436    -0.08100
C437        C  0.78857278  0.25158482  0.07647781    -0.06540
C438        C  0.80450239  0.26387866  0.12786131    -0.08100
C439        C  0.80721799  0.27711768  0.95863909    -0.06540
C440        C  0.82967486  0.30364206  0.91294673    -0.08100
C441        C  0.23512319  0.69236593  0.00707835    -0.06540
C442        C  0.21241253  0.66426550  0.05157876    -0.08100
C443        C  0.24103759  0.70430079  0.83792606    -0.06540
C444        C  0.25514733  0.71779503  0.88957471    -0.08100
C445        C  0.30379269  0.78214333  0.03990105    -0.06540
C446        C  0.31733044  0.78591657  0.09461210    -0.08100
C447        C  0.32768655  0.80754224  0.91934865    -0.06540
C448        C  0.35583338  0.82441048  0.87106683    -0.08100
C449        C  0.23665814  0.40745079  0.16517664    -0.06540
C450        C  0.21427403  0.35813400  0.16240890    -0.08100
C451        C  0.23540691  0.52419483  0.14036893    -0.06540
C452        C  0.21128048  0.56770108  0.11257726    -0.08100
C453        C  0.19529461  0.17862268  0.59188548    -0.06540
C454        C  0.22194259  0.19075554  0.54138541    -0.08100
C455        C  0.23528909  0.18101337  0.37118914    -0.06540
C456        C  0.25202502  0.19701411  0.42118467    -0.08100
C457        C  0.58401215  0.20071316  0.19497593    -0.06540
C458        C  0.62977294  0.17424148  0.17931988    -0.08100
C459        C  0.44521361  0.19698683  0.19320902    -0.06540
C460        C  0.40213262  0.17716973  0.17139969    -0.08100
C461        C  0.08474018  0.24882464  0.20449106    -0.06540
C462        C  0.12843340  0.27504584  0.18030735    -0.08100
C463        C  0.95807495  0.15537133  0.30267206    -0.06540
C464        C  0.91516242  0.13030612  0.32873511    -0.08100
C465        C  0.88565576  0.25592534  0.21215047    -0.06540
C466        C  0.93346043  0.23497715  0.23176513    -0.08100
C467        C  0.09713413  0.17771347  0.27758126    -0.06540
C468        C  0.14650925  0.16777815  0.29685465    -0.08100
C469        C  0.33531888  0.86577950  0.16572692    -0.06540
C470        C  0.30935497  0.90817835  0.19310614    -0.08100
C471        C  0.23624576  0.04198818  0.29503739    -0.06540
C472        C  0.21474137  0.08498506  0.32469472    -0.08100
C473        C  0.29734646  0.05533194  0.20265690    -0.06540
C474        C  0.31815420  0.10188415  0.17705726    -0.08100
C475        C  0.23206081  0.89796486  0.27181326    -0.06540
C476        C  0.20408848  0.85316330  0.29066280    -0.08100
C477        C  0.21526885  0.30658096  0.85025972    -0.06540
C478        C  0.22160586  0.28570007  0.90451796    -0.08100
C479        C  0.31383803  0.20880150  0.03583220    -0.06540
C480        C  0.33359983  0.18034862  0.08298077    -0.08100
C481        C  0.20361916  0.29034107  0.02711852    -0.06540
C482        C  0.17831880  0.30804853  0.07681801    -0.08100
C483        C  0.32375621  0.22202902  0.91047666    -0.06540
C484        C  0.34115000  0.20337088  0.85797192    -0.08100
C485        C  0.65293247  0.67898624  0.67374225    -0.06540
C486        C  0.60302671  0.69918676  0.68967680    -0.08100
C487        C  0.75221194  0.54968187  0.69989359    -0.06540
C488        C  0.73673759  0.59786455  0.67596217    -0.08100
C489        C  0.71714130  0.65996533  0.57773441    -0.06540
C490        C  0.73019686  0.68359841  0.52597288    -0.08100
C491        C  0.43219572  0.30083365  0.65060303    -0.06540
C492        C  0.47876803  0.28173350  0.67280504    -0.08100
C493        C  0.35538239  0.38006093  0.67445218    -0.06540
C494        C  0.34963999  0.43421921  0.68463594    -0.08100
C495        C  0.33393618  0.28219625  0.61106924    -0.06540
C496        C  0.31551463  0.26226960  0.56347753    -0.08100
C497        C  0.69616070  0.42332797  0.29220657    -0.06540
C498        C  0.67427374  0.37663125  0.31530660    -0.08100
C499        C  0.74403453  0.29343025  0.42273028    -0.06540
C500        C  0.71882792  0.29414713  0.37295948    -0.08100
C501        C  0.58436756  0.26331327  0.27063919    -0.06540
C502        C  0.62957872  0.28042426  0.29280181    -0.08100
C503        C  0.39688861  0.65081527  0.30116615    -0.06540
C504        C  0.44139816  0.67901940  0.28503378    -0.08100
C505        C  0.31925322  0.62456508  0.38558295    -0.06540
C506        C  0.29387573  0.64997159  0.43164398    -0.08100
C507        C  0.29601902  0.53267719  0.25802139    -0.06540
C508        C  0.31849927  0.57323537  0.28356200    -0.08100
C509        C  0.72593006  0.69074838  0.35533674    -0.06540
C510        C  0.74129962  0.71047979  0.40468713    -0.08100
C511        C  0.62947659  0.66804804  0.31668397    -0.06540
C512        C  0.58550422  0.69142772  0.29197967    -0.08100
C513        C  0.71168838  0.53950574  0.27307633    -0.06540
C514        C  0.70752949  0.59346891  0.28493118    -0.08100
C515        C  0.30489529  0.37129913  0.29520220    -0.06540
C516        C  0.28701455  0.41944869  0.27296448    -0.08100
C517        C  0.33596651  0.31224435  0.39033326    -0.06540
C518        C  0.32460283  0.28826021  0.44238656    -0.08100
C519        C  0.43075116  0.25942681  0.27090636    -0.06540
C520        C  0.38452038  0.28479598  0.29066019    -0.08100
C521        C  0.74057369  0.43674943  0.71515823    -0.06540
C522        C  0.71723745  0.39640668  0.68951870    -0.08100
C523        C  0.59176677  0.29236293  0.68328062    -0.06540
C524        C  0.63892205  0.31756988  0.67257665    -0.08100
C525        C  0.71917053  0.33916142  0.58947458    -0.06540
C526        C  0.74613215  0.31395361  0.54408395    -0.08100
C527        C  0.65567273  0.58742003  0.63272259    -0.06540
C528        C  0.60564793  0.57735904  0.63509131    -0.08100
C529        C  0.36799426  0.36553986  0.57631749    -0.06540
C530        C  0.33521590  0.39289527  0.54205439    -0.08100
C531        C  0.61242339  0.27326651  0.44280926    -0.06540
C532        C  0.62425767  0.29504309  0.39122737    -0.08100
C533        C  0.45026694  0.53515728  0.31276166    -0.06540
C534        C  0.40246291  0.55382783  0.33497632    -0.08100
C535        C  0.70392915  0.60251734  0.38226782    -0.06540
C536        C  0.73427792  0.57643461  0.42021381    -0.08100
C537        C  0.44706475  0.38360804  0.30273627    -0.06540
C538        C  0.39619234  0.37867693  0.31704930    -0.08100
C539        C  0.58590852  0.43323153  0.64540018    -0.06540
C540        C  0.63528743  0.41222804  0.63180838    -0.08100
C541        C  0.48316303  0.70061888  0.69002426    -0.06540
C542        C  0.43364816  0.68971938  0.67176985    -0.08100
C543        C  0.30547467  0.67838838  0.54972613    -0.06540
C544        C  0.33501839  0.68063328  0.59649832    -0.08100
C545        C  0.38374653  0.59838901  0.64517086    -0.06540
C546        C  0.36174697  0.55113039  0.66673594    -0.08100
C547        C  0.42743107  0.68805347  0.57149684    -0.06540
C548        C  0.43891660  0.71362159  0.52146081    -0.08100
loop_ 
_geom_bond_atom_site_label_1 
_geom_bond_atom_site_label_2 
_geom_bond_distance 
_geom_bond_site_symmetry_2 
_ccdc_geom_bond_type 
C1          C542   1.552       .  S
C1          C544   1.534       .  S
C1          C545   1.541       .  S
C1          C547   1.468       .  S
C2           N20   1.331       .  A
C2           C39   1.442       .  S
C2          C548   1.422       .  S
N3           N20   1.302       .  A
N3           N25   1.316       .  A
N3          Co40   2.114       .  S
C4           N29   1.332       .  A
C4           C42   1.452       .  S
C4           H49   1.083       .  S
H5           C46   1.066       .  S
C6           N30   1.308       .  A
C6           C10   1.455       .  S
C6           H35   1.077       .  S
Co7          N25   1.987       .  S
Co7          N15   2.033       .  S
Co7          N47   1.930       .  S
Co7          N23   2.056       .  S
Co7         Cl51   2.380       .  S
N8           C46   1.353       .  A
N8           N15   1.309       .  A
N8           Co9   2.097       .  S
Co9          N12   1.988       .  S
Co9          N29   1.965       .  S
Co9          N16   2.093       .  S
Co9         Cl51   2.367       .  S
C10          N48   1.322       .  A
C10         C537   1.422       .  S
N11          N18   1.311       .  A
N11          N41   1.308       .  A
N11         Co44   2.084       .  S
N12          N30   1.292       .  A
N12          N48   1.304       .  A
N13          C42   1.338       .  A
N13          N23   1.313       .  A
H14          C39   1.083       .  S
N15          N36   1.317       .  A
N16          N34   1.310       .  A
N16          N21   1.299       .  A
C17          N21   1.345       .  A
C17          C45   1.435       .  S
C17         C531   1.418       .  S
N18          C33   1.332       .  A
N18         Co40   2.006       .  S
C19          N47   1.299       .  A
C19          C22   1.445       .  S
C19          H53   1.072       .  S
C22          N43   1.307       .  A
C22         C528   1.402       .  S
N23          N29   1.301       .  A
N24          C50   1.360       .  A
N24          N26   1.300       .  A
N24         Co40   2.110       .  S
N25          C39   1.338       .  A
N26          N54   1.314       .  A
N26         Co44   2.013       .  S
H27          C50   1.072       .  S
H28          C45   1.083       .  S
N30         Co44   1.948       .  S
N31          N43   1.293       .  A
N31          N47   1.293       .  A
N31         Co40   1.969       .  S
C32          N36   1.322       .  A
C32          C46   1.445       .  S
C32         C533   1.463       .  S
C33          C52   1.454       .  S
C33          H37   1.083       .  S
N34          C45   1.330       .  A
N34         Co44   1.972       .  S
C38          N54   1.319       .  A
C38          C50   1.449       .  S
C38         C539   1.461       .  S
Co40        Cl51   2.359       .  S
N41          C52   1.329       .  A
C42         C536   1.414       .  S
Co44        Cl51   2.376       .  S
C52         C530   1.419       .  S
C55         C522   1.536       .  S
C55         C524   1.529       .  S
C55         C525   1.564       .  S
C55         C540   1.487       .  S
C56         C515   1.477       .  S
C56         C517   1.517       .  S
C56         C520   1.504       .  S
C56         C538   1.449       .  S
C57         C509   1.528       .  S
C57         C511   1.543       .  S
C57         C514   1.518       .  S
C57         C535   1.443       .  S
C58         C503   1.527       .  S
C58         C505   1.561       .  S
C58         C508   1.522       .  S
C58         C534   1.487       .  S
C59         C498   1.541       .  S
C59         C500   1.528       .  S
C59         C502   1.530       .  S
C59         C532   1.455       .  S
C60         C491   1.538       .  S
C60         C493   1.518       .  S
C60         C495   1.524       .  S
C60         C529   1.445       .  S
C61         C485   1.519       .  S
C61         C488   1.472       .  S
C61         C489   1.512       .  S
C61         C527   1.434       .  S
C62          C63   1.390       .  D
C62         C479   1.553   1_556  S
C62         C483   1.530       .  S
C63         C478   1.518       .  S
C63         C481   1.527   1_556  S
C64          C65   1.455   1_565  D
C64         C470   1.499       .  S
C64         C475   1.510       .  S
C65         C471   1.497       .  S
C65         C473   1.511       .  S
C66          C67   1.457   1_455  D
C66         C461   1.495       .  S
C66         C467   1.471       .  S
C67         C463   1.492       .  S
C67         C466   1.522       .  S
C68          C69   1.442       .  D
C68         C459   1.474       .  S
C68         C519   1.471       .  S
C69         C457   1.432       .  S
C69         C501   1.506       .  S
C70          C71   1.359       .  D
C70         C496   1.514       .  S
C70         C518   1.494       .  S
C71         C454   1.491       .  S
C71         C456   1.510       .  S
C72          C73   1.372       .  D
C72         C507   1.504       .  S
C72         C516   1.474       .  S
C73         C449   1.519       .  S
C73         C451   1.509       .  S
C74          C75   1.358       .  D
C74         C445   1.517   1_556  S
C74         C447   1.493       .  S
C75         C441   1.470   1_556  S
C75         C444   1.500       .  S
C76          C77   1.358   1_554  D
C76         C437   1.502       .  S
C76         C439   1.468   1_554  S
C77         C434   1.489   1_556  S
C77         C435   1.513       .  S
C78          C79   1.434   1_655  D
C78         C427   1.511       .  S
C78         C429   1.477       .  S
C79         C426   1.449       .  S
C79         C432   1.512       .  S
C80          C81   1.380       .  D
C80         C421   1.507       .  S
C80         C423   1.532       .  S
C81         C497   1.517       .  S
C81         C513   1.513       .  S
C82          C83   1.378       .  D
C82         C494   1.509       .  S
C82         C546   1.519       .  S
C83         C417   1.531       .  S
C83         C419   1.516       .  S
C84         C409   1.555       .  S
C84         C411   1.549       .  S
C84         C413   1.527       .  S
C84         C415   1.476       .  S
C85         N103   1.322       .  A
C85         C122   1.455   1_655  S
C85         C416   1.434       .  S
N86         N103   1.306       .  A
N86         N108   1.317   1_655  A
N86        Co123   2.125       .  S
C87         N112   1.332       .  A
C87         C125   1.455       .  S
C87         H132   1.083   1_556  S
H88         C129   1.067   1_554  S
C89         N113   1.307       .  A
C89          C93   1.449       .  S
C89         H118   1.079       .  S
Co90        N108   2.020       .  S
Co90         N98   2.036       .  S
Co90        N130   1.895       .  S
Co90        N106   2.076       .  S
Co90       Cl134   2.382       .  S
N91         C129   1.351       .  A
N91          N98   1.308       .  A
N91         Co92   2.081   1_556  S
Co92         N95   2.005       .  S
Co92        N112   1.975   1_554  S
Co92         N99   2.093       .  S
Co92       Cl134   2.364   1_554  S
C93         N131   1.322   1_655  A
C93         C408   1.410       .  S
N94         N101   1.313   1_554  A
N94         N124   1.314       .  A
N94        Co127   2.087       .  S
N95         N113   1.293   1_455  A
N95         N131   1.306       .  A
N96         C125   1.340       .  A
N96         N106   1.319       .  A
H97         C122   1.083       .  S
N98         N119   1.314       .  A
N99         N117   1.310       .  A
N99         N104   1.299       .  A
C100        N104   1.333       .  A
C100        C128   1.445       .  S
C100        C395   1.420       .  S
N101        C116   1.333       .  A
N101       Co123   2.029       .  S
C102        N130   1.300       .  A
C102        C105   1.437       .  S
C102        H136   1.077       .  S
C105        N126   1.312       .  A
C105        C404   1.396       .  S
N106        N112   1.303       .  A
N107        C133   1.357       .  A
N107        N109   1.300   1_556  A
N107       Co123   2.092       .  S
N108        C122   1.345       .  A
N109        N137   1.310       .  A
N109       Co127   2.018       .  S
H110        C133   1.071       .  S
H111        C128   1.083       .  S
N113       Co127   1.927       .  S
N114        N126   1.295       .  A
N114        N130   1.290       .  A
N114       Co123   2.004   1_455  S
C115        N119   1.316       .  A
C115        C129   1.447       .  S
C115        C401   1.450   1_455  S
C116        C135   1.457   1_556  S
C116        H120   1.083       .  S
N117        C128   1.336       .  A
N117       Co127   1.993   1_455  S
C121        N137   1.314   1_455  A
C121        C133   1.450   1_454  S
C121        C397   1.452       .  S
Co123      Cl134   2.351   1_655  S
N124        C135   1.332       .  A
C125        C405   1.421       .  S
Co127      Cl134   2.379   1_654  S
C135        C400   1.424       .  S
C138        C407   1.432       .  S
C138        C424   1.560       .  S
C138        C438   1.511       .  S
C138        C465   1.557       .  S
C139        C406   1.448       .  S
C139        C420   1.524       .  S
C139        C431   1.547       .  S
C139        C477   1.525       .  S
C140        C394   1.568       .  S
C140        C403   1.422       .  S
C140        C418   1.558       .  S
C140        C443   1.509       .  S
C141        C391   1.533       .  S
C141        C402   1.477       .  S
C141        C430   1.510       .  S
C141        C440   1.477       .  S
C142        C387   1.519       .  S
C142        C389   1.546       .  S
C142        C399   1.451       .  S
C142        C422   1.515       .  S
C143        C144   1.376       .  D
C143        C487   1.469       .  S
C143        C521   1.515       .  S
C144        C392   1.509       .  S
C144        C414   1.529       .  S
C145        C386   1.496       .  S
C145        C398   1.480       .  S
C145        C442   1.480       .  S
C145        C452   1.531       .  S
C146        C396   1.459       .  S
C146        C450   1.522       .  S
C146        C462   1.524       .  S
C146        C482   1.549       .  S
C147        C148   1.468   1_565  D
C147        C377   1.494       .  S
C147        C383   1.479       .  S
C148        C380   1.471       .  S
C148        C381   1.500       .  S
C149        C150   1.453       .  D
C149        C375   1.520       .  S
C149        C512   1.514       .  S
C150        C374   1.477       .  S
C150        C504   1.489       .  S
C151        C152   1.381       .  D
C151        C492   1.514       .  S
C151        C523   1.516       .  S
C152        C369   1.530       .  S
C152        C371   1.504       .  S
C153        C365   1.537       .  S
C153        C367   1.447       .  S
C153        C372   1.511       .  S
C153        C436   1.519       .  S
C154        N172   1.342       .  A
C154        C191   1.433   1_556  S
C154        C359   1.407       .  S
N155        N172   1.299       .  A
N155        N177   1.313   1_556  A
N155       Co192   2.053       .  S
C156        N181   1.330       .  A
C156        C194   1.432       .  S
C156        H201   1.084   1_556  S
H157        C198   1.063       .  S
C158        N182   1.317       .  A
C158        C162   1.466       .  S
C158        H187   1.080   1_565  S
Co159       N177   1.981   1_566  S
Co159       N167   2.007   1_556  S
Co159       N199   1.989       .  S
Co159       N175   2.068       .  S
Co159      Cl203   2.445       .  S
N160        C198   1.353       .  A
N160        N167   1.312       .  A
N160       Co161   2.089       .  S
Co161       N164   1.991       .  S
Co161       N181   1.980   1_554  S
Co161       N168   2.057   1_554  S
Co161      Cl203   2.283   1_554  S
C162        N200   1.334       .  A
C162        C351   1.437   1_565  S
N163        N170   1.309   1_554  A
N163        N193   1.307       .  A
N163       Co196   2.068   1_554  S
N164        N182   1.296       .  A
N164        N200   1.316       .  A
N165        C194   1.337       .  A
N165        N175   1.308       .  A
H166        C191   1.082       .  S
N167        N188   1.310       .  A
N168        N186   1.314       .  A
N168        N173   1.303       .  A
C169        N173   1.342       .  A
C169        C197   1.428       .  S
C169        C363   1.400   1_556  S
N170        C185   1.330       .  A
N170       Co192   1.992       .  S
C171        N199   1.317       .  A
C171        C174   1.470       .  S
C171        H205   1.079       .  S
C174        N195   1.324   1_565  A
C174        C361   1.423       .  S
N175        N181   1.306       .  A
N176        C202   1.354       .  A
N176        N178   1.307       .  A
N176       Co192   2.086       .  S
N177        C191   1.328       .  A
N178        N206   1.308       .  A
N178       Co196   1.993       .  S
H179        C202   1.062   1_565  S
H180        C197   1.083       .  S
N182       Co196   1.977   1_564  S
N183        N195   1.312       .  A
N183        N199   1.300   1_545  A
N183       Co192   1.972       .  S
C184        N188   1.320       .  A
C184        C198   1.433       .  S
C184        C354   1.428   1_565  S
C185        C204   1.435       .  S
C185        H189   1.084       .  S
N186        C197   1.325       .  A
N186       Co196   1.976   1_565  S
C190        N206   1.319   1_565  A
C190        C202   1.436   1_565  S
C190        C357   1.426       .  S
Co192      Cl203   2.279   1_545  S
N193        C204   1.335   1_554  A
C194        C355   1.419   1_556  S
Co196      Cl203   2.439   1_545  S
C204        C368   1.421       .  S
C207        C348   1.551       .  S
C207        C350   1.531       .  S
C207        C364   1.420       .  S
C207        C376   1.557       .  S
C208        C345   1.469       .  S
C208        C362   1.450       .  S
C208        C384   1.506       .  S
C208        C448   1.516       .  S
C209        C360   1.437       .  S
C209        C370   1.554       .  S
C209        C382   1.529       .  S
C209        C484   1.541       .  S
C210        C339   1.543       .  S
C210        C341   1.578       .  S
C210        C343   1.519       .  S
C210        C358   1.452       .  S
C211        C356   1.442       .  S
C211        C373   1.506       .  S
C211        C446   1.526       .  S
C211        C469   1.535       .  S
C212        C213   1.346       .  D
C212        C344   1.510       .  S
C212        C346   1.462       .  S
C213        C486   1.505       .  S
C213        C541   1.554       .  S
C214        C353   1.452       .  S
C214        C460   1.506       .  S
C214        C474   1.545       .  S
C214        C480   1.579       .  S
C215        C337   1.490       .  S
C215        C352   1.458       .  S
C215        C433   1.513       .  S
C215        C458   1.454       .  S
C216        C217   1.371       .  D
C216        C385   1.476       .  S
C216        C390   1.527   1_455  S
C217        C333   1.521       .  S
C217        C335   1.464   1_455  S
C218        C219   1.459       .  D
C218        C329   1.461       .  S
C218        C349   1.499       .  S
C219        C331   1.496   1_565  S
C219        C338   1.460   1_565  S
C220        C221   1.383       .  D
C220        C326   1.521       .  S
C220        C327   1.538       .  S
C221        C499   1.528       .  S
C221        C526   1.540       .  S
C222        C223   1.384       .  D
C222        C506   1.538       .  S
C222        C543   1.537       .  S
C223        C321   1.541       .  S
C223        C323   1.515       .  S
C224        C319   1.455       .  S
C224        C325   1.519       .  S
C224        C332   1.521       .  S
C224        C464   1.529       .  S
C225        N243   1.348       .  A
C225        C262   1.434       .  S
C225        C320   1.418       .  S
N226        N243   1.300       .  A
N226        N248   1.311       .  A
N226       Co263   2.090       .  S
C227        N252   1.332       .  A
C227        C265   1.456   1_455  S
C227        H272   1.083       .  S
H228        C269   1.065       .  S
C229        N253   1.307       .  A
C229        C233   1.453       .  S
C229        H258   1.073       .  S
Co230       N248   1.976   1_565  S
Co230       N238   2.034       .  S
Co230       N270   1.955       .  S
Co230       N246   2.062       .  S
Co230      Cl274   2.372   1_655  S
N231        C269   1.359       .  A
N231        N238   1.304   1_455  A
N231       Co232   2.093       .  S
Co232       N235   1.995       .  S
Co232       N252   2.002       .  S
Co232       N239   2.094       .  S
Co232      Cl274   2.361       .  S
C233        N271   1.321   1_545  A
C233        C305   1.422       .  S
N234        N241   1.308       .  A
N234        N264   1.313       .  A
N234       Co267   2.067       .  S
N235        N253   1.292   1_565  A
N235        N271   1.305       .  A
N236        C265   1.333       .  A
N236        N246   1.312       .  A
H237        C262   1.083   1_565  S
N238        N259   1.316       .  A
N239        N257   1.311       .  A
N239        N244   1.301       .  A
C240        N244   1.342       .  A
C240        C268   1.440       .  S
C240        C314   1.420       .  S
N241        C256   1.332       .  A
N241       Co263   2.003   1_455  S
C242        N270   1.309       .  A
C242        C245   1.451       .  S
C242        H276   1.075       .  S
C245        N266   1.325   1_565  A
C245        C317   1.418       .  S
N246        N252   1.306   1_655  A
N247        C273   1.357       .  A
N247        N249   1.307       .  A
N247       Co263   2.090   1_455  S
N248        C262   1.330       .  A
N249        N277   1.315       .  A
N249       Co267   2.039       .  S
H250        C273   1.064       .  S
H251        C268   1.082       .  S
N253       Co267   1.952       .  S
N254        N266   1.307       .  A
N254        N270   1.292   1_545  A
N254       Co263   2.010       .  S
C255        N259   1.319       .  A
C255        C269   1.442   1_655  S
C255        C311   1.457   1_565  S
C256        C275   1.455       .  S
C256        H260   1.083   1_455  S
N257        C268   1.332       .  A
N257       Co267   1.986   1_565  S
C261        N277   1.318   1_565  A
C261        C273   1.447   1_565  S
C261        C315   1.459       .  S
Co263      Cl274   2.370   1_645  S
N264        C275   1.335       .  A
C265        C310   1.416       .  S
Co267      Cl274   2.374   1_545  S
C275        C307   1.417       .  S
C278        C304   1.509       .  S
C278        C318   1.448       .  S
C278        C330   1.494       .  S
C278        C336   1.471       .  S
C279        C316   1.485       .  S
C279        C322   1.567       .  S
C279        C334   1.537       .  S
C279        C476   1.543       .  S
C280        C301   1.530       .  S
C280        C313   1.461       .  S
C280        C324   1.514       .  S
C280        C378   1.519       .  S
C281        C299   1.541       .  S
C281        C312   1.481       .  S
C281        C328   1.563       .  S
C281        C428   1.539       .  S
C282        C293   1.507       .  S
C282        C295   1.528       .  S
C282        C297   1.514       .  S
C282        C309   1.442       .  S
C283        C284   1.356       .  D
C283        C490   1.490       .  S
C283        C510   1.519       .  S
C284        C298   1.510       .  S
C284        C303   1.486       .  S
C285        C308   1.440       .  S
C285        C455   1.517       .  S
C285        C468   1.500       .  S
C285        C472   1.531       .  S
C286        C306   1.447       .  S
C286        C379   1.506       .  S
C286        C425   1.469       .  S
C286        C453   1.515       .  S
C287        C288   1.367       .  D
C287        C294   1.499   1_455  S
C287        C302   1.509       .  S
C288        C393   1.545       .  S
C288        C412   1.544   1_455  S
C289        C290   1.454   1_545  D
C289        C300   1.510       .  S
C289        C366   1.500       .  S
C290        C296   1.494       .  S
C290        C340   1.511       .  S
C291        C292   1.396       .  D
C291        C388   1.510   1_556  S
C291        C410   1.535       .  S
C292        C342   1.550       .  S
C292        C347   1.538   1_556  S
C293        C294   1.242       .  T
C295        C296   1.247       .  T
C297        C298   1.248       .  T
C299        C300   1.254       .  T
C301        C302   1.244       .  T
C303        C304   1.232       .  T
C305        C306   1.193       .  T
C307        C308   1.219       .  T
C309        C310   1.218       .  T
C311        C312   1.224       .  T
C313        C314   1.211       .  T
C315        C316   1.226       .  T
C317        C318   1.194       .  T
C319        C320   1.208       .  T
C321        C322   1.266       .  T
C323        C324   1.249       .  T
C325        C326   1.251       .  T
C327        C328   1.264       .  T
C329        C330   1.233       .  T
C331        C332   1.253       .  T
C333        C334   1.251       .  T
C335        C336   1.219       .  T
C337        C338   1.233       .  T
C339        C340   1.257       .  T
C341        C342   1.272       .  T
C343        C344   1.244       .  T
C345        C346   1.224       .  T
C347        C348   1.264       .  T
C349        C350   1.256       .  T
C351        C352   1.207       .  T
C353        C354   1.211       .  T
C355        C356   1.211       .  T
C357        C358   1.211       .  T
C359        C360   1.209       .  T
C361        C362   1.198       .  T
C363        C364   1.203       .  T
C365        C366   1.251       .  T
C367        C368   1.211       .  T
C369        C370   1.257       .  T
C371        C372   1.245       .  T
C373        C374   1.244       .  T
C375        C376   1.258       .  T
C377        C378   1.253       .  T
C379        C380   1.238       .  T
C381        C382   1.257       .  T
C383        C384   1.244       .  T
C385        C386   1.227       .  T
C387        C388   1.249       .  T
C389        C390   1.255       .  T
C391        C392   1.247       .  T
C393        C394   1.267       .  T
C395        C396   1.215       .  T
C397        C398   1.223       .  T
C399        C400   1.217       .  T
C401        C402   1.221       .  T
C403        C404   1.172       .  T
C405        C406   1.224       .  T
C407        C408   1.187       .  T
C409        C410   1.262       .  T
C411        C412   1.266       .  T
C413        C414   1.257       .  T
C415        C416   1.224       .  T
C417        C418   1.259       .  T
C419        C420   1.255       .  T
C421        C422   1.249       .  T
C423        C424   1.259       .  T
C425        C426   1.217       .  T
C427        C428   1.251       .  T
C429        C430   1.234       .  T
C431        C432   1.258       .  T
C433        C434   1.236       .  T
C435        C436   1.249       .  T
C437        C438   1.242       .  T
C439        C440   1.220       .  T
C441        C442   1.221       .  T
C443        C444   1.241       .  T
C445        C446   1.252       .  T
C447        C448   1.238       .  T
C449        C450   1.251       .  T
C451        C452   1.247       .  T
C453        C454   1.235       .  T
C455        C456   1.248       .  T
C457        C458   1.215       .  T
C459        C460   1.238       .  T
C461        C462   1.255       .  T
C463        C464   1.243       .  T
C465        C466   1.264       .  T
C467        C468   1.241       .  T
C469        C470   1.251       .  T
C471        C472   1.249       .  T
C473        C474   1.257       .  T
C475        C476   1.255       .  T
C477        C478   1.255       .  T
C479        C480   1.273       .  T
C481        C482   1.256       .  T
C483        C484   1.260       .  T
C485        C486   1.242       .  T
C487        C488   1.223       .  T
C489        C490   1.235       .  T
C491        C492   1.250       .  T
C493        C494   1.247       .  T
C495        C496   1.252       .  T
C497        C498   1.251       .  T
C499        C500   1.256       .  T
C501        C502   1.259       .  T
C503        C504   1.248       .  T
C505        C506   1.264       .  T
C507        C508   1.243       .  T
C509        C510   1.256       .  T
C511        C512   1.254       .  T
C513        C514   1.251       .  T
C515        C516   1.224       .  T
C517        C518   1.237       .  T
C519        C520   1.237       .  T
C521        C522   1.250       .  T
C523        C524   1.248       .  T
C525        C526   1.265       .  T
C527        C528   1.178       .  T
C529        C530   1.215       .  T
C531        C532   1.211       .  T
C533        C534   1.228       .  T
C535        C536   1.221       .  T
C537        C538   1.195       .  T
C539        C540   1.227       .  T
C541        C542   1.269       .  T
C543        C544   1.261       .  T
C545        C546   1.252       .  T
C547        C548   1.215       .  T
