geometry optimzed in LAMMPS
_audit_creation_date              2020-11-30 
_audit_creation_method            'lammps2cif' 
_symmetry_space_group_name_H-M    'P1' 
_symmetry_Int_Tables_number       1 
_symmetry_cell_setting            triclinic 
loop_ 
_symmetry_equiv_pos_as_xyz 
  x,y,z 
_cell_length_a                    43.303034116572086 
_cell_length_b                    43.24936861063336 
_cell_length_c                    43.2893831232784 
_cell_angle_alpha                 89.91790002149881 
_cell_angle_beta                  89.82593611870203 
_cell_angle_gamma                 89.82315295144225 
loop_ 
_atom_site_label 
_atom_site_type_symbol 
_atom_site_fract_x 
_atom_site_fract_y 
_atom_site_fract_z 
_atom_site_charge 
C1          C  0.59797974  0.37434077  0.49928546     0.42130
N2          N  0.56882391  0.33704934  0.51312382     0.01020
C3          C  0.47843992  0.25444369  0.41074545    -0.06850
H4          H  0.45458676  0.36541939  0.41371615     0.06520
C5          C  0.42467019  0.36192424  0.52564913    -0.07200
Co6        Co  0.54439387  0.30307688  0.45883040     0.74180
N7          N  0.48905937  0.33714100  0.43612463    -0.26380
Co8        Co  0.46465161  0.30398758  0.46021755     0.74070
C9          C  0.41315290  0.37655304  0.49769072     0.42240
N10         N  0.49084516  0.33834594  0.56303317     0.00640
N11         N  0.44162732  0.33823301  0.48500044     0.00750
N12         N  0.53036383  0.25446831  0.41065799    -0.47230
H13         H  0.59079125  0.36419978  0.44771066     0.06500
N14         N  0.51947952  0.33691810  0.43530189     0.01030
N15         N  0.44005094  0.27114617  0.48528314     0.00770
C16         C  0.39856958  0.24626366  0.49752836     0.42380
N17         N  0.52128218  0.33794010  0.56225054    -0.25840
C18         C  0.59394052  0.25342841  0.47397021    -0.06760
N19         N  0.58666510  0.35925299  0.52412962    -0.46940
N20         N  0.41610287  0.25631012  0.47376230    -0.47170
C21         C  0.60943477  0.24241170  0.50208332     0.42150
N22         N  0.51932838  0.26976871  0.43475237     0.01020
N23         N  0.52046566  0.27148979  0.56477882    -0.25860
N24         N  0.56823984  0.33664593  0.48268493    -0.26350
N25         N  0.48996541  0.27114994  0.56483983     0.00660
H26         H  0.55412584  0.25534508  0.59732479     0.06550
H27         H  0.40588851  0.25681904  0.54906023     0.06580
N28         N  0.48883268  0.27065021  0.43495035    -0.26400
N29         N  0.44209999  0.33843953  0.51544582    -0.26010
N30         N  0.56918511  0.26972196  0.51421541     0.01020
C31         C  0.50631634  0.37451822  0.40613711     0.42420
C32         C  0.53202329  0.36100521  0.57973556    -0.07260
N33         N  0.43951362  0.27197045  0.51577912    -0.26010
H34         H  0.41993742  0.36738297  0.54957808     0.06570
N35         N  0.53088304  0.35890343  0.41730022    -0.47230
H36         H  0.55606680  0.36584612  0.58431321     0.06560
C37         C  0.50269934  0.24487908  0.60552351     0.42260
C38         C  0.58605819  0.35942372  0.47179294    -0.06760
Co39       Co  0.54524049  0.30376867  0.53877760     0.73820
N40         N  0.47970861  0.36080605  0.58065323    -0.46950
C41         C  0.50609663  0.24416205  0.39406590     0.42520
N42         N  0.59246452  0.25368888  0.52584291    -0.46940
Co43       Co  0.46538283  0.30465806  0.54010385     0.73890
C44         C  0.41461892  0.25628774  0.52563062    -0.07270
C45         C  0.47857264  0.36015826  0.41831026    -0.06830
N46         N  0.56968429  0.27021927  0.48371387    -0.26360
N47         N  0.42427528  0.36062170  0.47332895    -0.47120
H48         H  0.45483855  0.25489807  0.40263225     0.06530
C49         C  0.53054330  0.25522632  0.58916678    -0.07240
Cl50       Cl  0.50491577  0.30315461  0.49951818    -0.50250
C51         C  0.50443542  0.37609741  0.59165362     0.42280
H52         H  0.60254172  0.25343875  0.45048945     0.06500
N53         N  0.47865199  0.25594707  0.58887589    -0.46960
C54         C  0.59933680  0.49017025  0.38025237     0.42130
N55         N  0.57088990  0.47652879  0.34255308     0.01020
C56         C  0.47891374  0.57897538  0.25958193    -0.06850
H57         H  0.45494497  0.57668900  0.37028711     0.06520
C58         C  0.42659377  0.46374191  0.36768658    -0.07200
Co59       Co  0.54478433  0.53066232  0.30842943     0.74180
N60         N  0.48941422  0.55376439  0.34228309    -0.26380
Co61       Co  0.46507693  0.52920148  0.30940788     0.74070
C62         C  0.41430939  0.49179567  0.38175812     0.42240
N63         N  0.49402160  0.42669121  0.34432297     0.00640
N64         N  0.44299960  0.50437464  0.34374407     0.00750
N65         N  0.53077914  0.57772546  0.25921716    -0.47230
H66         H  0.59121241  0.54190098  0.37047592     0.06500
N67         N  0.51984533  0.55428395  0.34220081     0.01030
N68         N  0.44014080  0.50330134  0.27721105     0.00770
C69         C  0.39941889  0.48749634  0.25289525     0.42380
N70         N  0.52445210  0.42716165  0.34369141    -0.25840
C71         C  0.59147561  0.51786253  0.25687833    -0.06760
N72         N  0.58858452  0.46544860  0.36486973    -0.46940
N73         N  0.41459842  0.51281814  0.26321204    -0.47170
C74         C  0.61071159  0.49142734  0.24781844     0.42150
N75         N  0.51941217  0.55418542  0.27498538     0.01020
N76         N  0.52353739  0.42439571  0.27745373    -0.25860
N77         N  0.56961979  0.50699338  0.34222760    -0.26350
N78         N  0.49304353  0.42492872  0.27710020     0.00660
H79         H  0.55658089  0.39067606  0.26187078     0.06550
H80         H  0.41306807  0.43667084  0.26202465     0.06580
N81         N  0.48893612  0.55450271  0.27588970    -0.26400
N82         N  0.44418941  0.47390904  0.34430241    -0.26010
N83         N  0.57213894  0.47589552  0.27580076     0.01020
C84         C  0.50669330  0.58395987  0.37941693     0.42420
C85         C  0.53531561  0.40964515  0.36678043    -0.07260
N86         N  0.44224584  0.47285914  0.27771664    -0.26010
H87         H  0.42210591  0.43979899  0.37332424     0.06570
N88         N  0.53123918  0.57237225  0.36400844    -0.47230
H89         H  0.55937749  0.40494171  0.37156220     0.06560
C90         C  0.50496160  0.38375508  0.25119827     0.42260
C91         C  0.58709132  0.51780735  0.36531025    -0.06760
Co92       Co  0.54812529  0.45073120  0.30952053     0.73820
N93         N  0.48299815  0.40924984  0.36692041    -0.46950
C94         C  0.50691012  0.59497528  0.24898818     0.42520
N95         N  0.59693182  0.46624273  0.26047349    -0.46940
Co96       Co  0.46825666  0.44933875  0.31061588     0.73890
C97         C  0.41864707  0.46098997  0.26194706    -0.07270
C98         C  0.47893084  0.57191235  0.36507420    -0.06830
N99         N  0.56953246  0.50628369  0.27518607    -0.26360
N100        N  0.42515653  0.51608225  0.36566704    -0.47120
H101        H  0.45544272  0.58759450  0.26001879     0.06530
C102        C  0.53317273  0.39945916  0.26157823    -0.07240
Cl103      Cl  0.50654240  0.48997295  0.30906185    -0.50250
C104        C  0.50777848  0.39806880  0.38209612     0.42280
H105        H  0.59648770  0.54226144  0.25491747     0.06500
N106        N  0.48134274  0.40126143  0.26188611    -0.46960
C107        C  0.50835970  0.60792118  0.40304790     0.42130
N108        N  0.49520417  0.64585630  0.43182441     0.01020
C109        C  0.59704350  0.72789197  0.52317776    -0.06850
H110        H  0.59141321  0.61686492  0.54832351     0.06520
C111        C  0.47904288  0.62467193  0.57688426    -0.07200
Co112      Co  0.54986043  0.67884981  0.45670542     0.74180
N113        N  0.57033457  0.64530713  0.51311980    -0.26380
Co114      Co  0.54652920  0.67973813  0.53640098     0.74070
C115        C  0.50649892  0.60969377  0.58919173     0.42240
N116        N  0.44364314  0.64748325  0.50900161     0.00640
N117        N  0.52046037  0.64676974  0.55973830     0.00750
N118        N  0.59908698  0.72650693  0.47133238    -0.47230
H119        H  0.56010886  0.61675113  0.41073235     0.06500
N120        N  0.57167509  0.64494867  0.48269889     0.01030
N121        N  0.52176993  0.71400001  0.55946131     0.00770
C122        C  0.50971111  0.74011366  0.60021298     0.42380
N123        N  0.44500559  0.64727020  0.47855929    -0.25840
C124        C  0.53712081  0.72777693  0.40593586    -0.06760
N125        N  0.48383092  0.62379901  0.41402777    -0.46940
N126        N  0.53341182  0.72945806  0.58296192    -0.47170
C127        C  0.50955255  0.73908807  0.38972440     0.42150
N128        N  0.57432654  0.71193275  0.48179550     0.01020
N129        N  0.44517134  0.71414274  0.47787412    -0.25860
N130        N  0.52562488  0.64547013  0.43275393    -0.26350
N131        N  0.44278495  0.71431252  0.50827543     0.00660
H132        H  0.41709876  0.73257817  0.44169305     0.06550
H133        H  0.45808071  0.73040934  0.59291015     0.06580
N134        N  0.57305924  0.71181762  0.51225203    -0.26400
N135        N  0.49003474  0.64733693  0.55886846    -0.26010
N136        N  0.49609702  0.71317082  0.43036080     0.01020
C137        C  0.59945396  0.60671131  0.49677347     0.42420
C138        C  0.42702007  0.62445165  0.46801560    -0.07260
N139        N  0.49125476  0.71378508  0.55976809    -0.26010
H140        H  0.45494054  0.61997271  0.58146264     0.06570
N141        N  0.58911247  0.62224298  0.47187071    -0.47230
H142        H  0.42274998  0.61913721  0.44400133     0.06560
C143        C  0.40364900  0.74128477  0.49239915     0.42260
C144        C  0.53611669  0.62222148  0.41518109    -0.06760
Co145      Co  0.47021306  0.68035882  0.45439648     0.73820
N146        N  0.42529676  0.62578607  0.52030653    -0.46950
C147        C  0.61494415  0.73727699  0.49593207     0.42520
N148        N  0.48526015  0.72896805  0.40658160    -0.46940
Co149      Co  0.46658237  0.68105664  0.53423779     0.73890
C150        C  0.48154003  0.73025034  0.58425432    -0.07270
C151        C  0.58734346  0.62191358  0.52419698    -0.06830
N152        N  0.52654577  0.71185268  0.43038647    -0.26360
N153        N  0.53134293  0.62463890  0.57787761    -0.47120
H154        H  0.60402109  0.72789953  0.54714133     0.06530
C155        C  0.42264888  0.73162933  0.46601427    -0.07240
Cl156      Cl  0.50828504  0.68040980  0.49542430    -0.50250
C157        C  0.41425156  0.61027313  0.49576863     0.42280
H158        H  0.56070468  0.72689551  0.39767455     0.06500
N159        N  0.41788910  0.72958602  0.51772634    -0.46960
C160        C  0.62195193  0.39788225  0.50033725     0.42130
N161        N  0.65976943  0.42612978  0.48612257     0.01020
C162        C  0.74420276  0.51970551  0.58363729    -0.06850
H163        H  0.63221807  0.54380030  0.58113390     0.06520
C164        C  0.63748740  0.57007945  0.46804723    -0.07200
Co165      Co  0.69374469  0.45171574  0.53991789     0.74180
N166        N  0.66058550  0.50837764  0.56010826    -0.26380
Co167      Co  0.69444718  0.53145264  0.53486659     0.74070
C168        C  0.62294775  0.58263910  0.49560758     0.42240
N169        N  0.66008380  0.50223991  0.43330761     0.00640
N170        N  0.66068496  0.55400455  0.50926717     0.00750
N171        N  0.74095124  0.46816171  0.58949763    -0.47230
H172        H  0.63176532  0.40619362  0.55182633     0.06500
N173        N  0.66030170  0.47795253  0.56191227     0.01030
N174        N  0.72777662  0.55470017  0.50874849     0.00770
C175        C  0.75335290  0.59545414  0.49486256     0.42380
N176        N  0.65999329  0.47181316  0.43506538    -0.25840
C177        C  0.74207880  0.40035869  0.52662802    -0.06760
N178        N  0.63740195  0.40838996  0.47538519    -0.46940
N179        N  0.74314554  0.57880717  0.51929438    -0.47170
C180        C  0.75178982  0.38327667  0.49897193     0.42150
N181        N  0.72691018  0.47736227  0.56385245     0.01020
N182        N  0.72686156  0.47119495  0.43399249    -0.25860
N183        N  0.66000226  0.42745739  0.51653778    -0.26350
N184        N  0.72663561  0.50155111  0.43090987     0.00660
H185        H  0.74605512  0.43442573  0.40725377     0.06550
H186        H  0.74179120  0.58621575  0.44364407     0.06580
N187        N  0.72741203  0.50772761  0.56078958    -0.26400
N188        N  0.66060584  0.55259734  0.47885473    -0.26010
N189        N  0.72686278  0.42444927  0.48563142     0.01020
C190        C  0.62247185  0.49226971  0.59016173     0.42420
C191        C  0.63702133  0.46102426  0.41743017    -0.07260
N192        N  0.72683581  0.55418444  0.47826390    -0.26010
H193        H  0.63218801  0.57412376  0.44397483     0.06570
N194        N  0.63794607  0.46729019  0.57985193    -0.47230
H195        H  0.63178360  0.43693167  0.41340145     0.06560
C196        C  0.75236074  0.48486415  0.39129465     0.42260
C197        C  0.63685454  0.41022497  0.52768141    -0.06760
Co198      Co  0.69364515  0.44814509  0.46008441     0.73820
N199        N  0.63824844  0.51332322  0.41503527    -0.46950
C200        C  0.75248121  0.49354090  0.60368171     0.42520
N201        N  0.74173619  0.40006877  0.47471019    -0.46940
Co202      Co  0.69388056  0.52785111  0.45503227     0.73890
C203        C  0.74259814  0.57862765  0.46740671    -0.07270
C204        C  0.63741299  0.51961252  0.57740795    -0.06830
N205        N  0.72633156  0.42500216  0.51614481    -0.26360
N206        N  0.63855133  0.57204270  0.52034187    -0.47120
H207        H  0.74534986  0.54417487  0.58849324     0.06530
C208        C  0.74407148  0.45891573  0.41144208    -0.07240
Cl209      Cl  0.69466580  0.48979180  0.49747912    -0.50250
C210        C  0.62267411  0.48866023  0.40445854     0.42280
H211        H  0.74168862  0.39235287  0.55031003     0.06500
N212        N  0.74109950  0.51050075  0.40540706    -0.46960
C213        C  0.41381876  0.49475492  0.61397056     0.42130
N214        N  0.44159735  0.48144413  0.65231647     0.01020
C215        C  0.53522014  0.58275251  0.73370940    -0.06850
H216        H  0.55931936  0.57755824  0.62263519     0.06520
C217        C  0.58554588  0.46387451  0.62854495    -0.07200
Co218      Co  0.46824918  0.53569999  0.68535293     0.74180
N219        N  0.52433835  0.55627948  0.65121210    -0.26380
Co220      Co  0.54787876  0.53175600  0.68493680     0.74070
C221        C  0.59837291  0.49126511  0.61373903     0.42240
N222        N  0.51727909  0.42922220  0.65244305     0.00640
N223        N  0.56979953  0.50546449  0.65137847     0.00750
N224        N  0.48335595  0.58328436  0.73413541    -0.47230
H225        H  0.42254100  0.54654801  0.62248865     0.06500
N226        N  0.49393190  0.55774496  0.65123984     0.01030
N227        N  0.57160737  0.50590258  0.71824887     0.00770
C228        C  0.61139598  0.49049101  0.74453549     0.42380
N229        N  0.48686727  0.43064672  0.65283021    -0.25840
C230        C  0.41990749  0.52525232  0.73594787    -0.06760
N231        N  0.42401287  0.47019846  0.63010464    -0.46940
N232        N  0.59626779  0.51562231  0.73338971    -0.47170
C233        C  0.40027734  0.49929000  0.74534300     0.42150
N234        N  0.49402522  0.55929080  0.71846934     0.01020
N235        N  0.48704597  0.42995117  0.71932190    -0.25860
N236        N  0.44330449  0.51188027  0.65189584    -0.26350
N237        N  0.51752655  0.42875538  0.71960121     0.00660
H238        H  0.45217803  0.39925372  0.73621851     0.06550
H239        H  0.59816825  0.43940588  0.73553582     0.06580
N240        N  0.52448815  0.55856493  0.71761397    -0.26400
N241        N  0.56807781  0.47502207  0.65161305    -0.26010
N242        N  0.43954979  0.48246323  0.71902570     0.01020
C243        C  0.50772616  0.58611441  0.61327525     0.42420
C244        C  0.47580457  0.41287171  0.63009516    -0.07260
N245        N  0.56966023  0.47546443  0.71813657    -0.26010
H246        H  0.58953001  0.43970135  0.62349911     0.06570
N247        N  0.48295357  0.57562779  0.62896691    -0.47230
H248        H  0.45168370  0.40879363  0.62519090     0.06560
C249        C  0.50336712  0.38913206  0.74680509     0.42260
C250        C  0.42625292  0.52250417  0.62833918    -0.06760
Co251      Co  0.46344758  0.45590916  0.68622844     0.73820
N252        N  0.52807590  0.41093853  0.63040000    -0.46950
C253        C  0.50776295  0.59955596  0.74470313     0.42520
N254        N  0.41443465  0.47357505  0.73418753    -0.46940
Co255      Co  0.54329925  0.45182657  0.68571698     0.73890
C256        C  0.59293908  0.46376757  0.73474089    -0.07270
C257        C  0.53523338  0.57358369  0.62794751    -0.06830
N258        N  0.44237732  0.51281694  0.71875053    -0.26360
N259        N  0.58789587  0.51618917  0.62916268    -0.47120
H260        H  0.55894961  0.59046641  0.73317671     0.06530
C261        C  0.47607972  0.40635897  0.73620531    -0.07240
Cl262      Cl  0.50572810  0.49380051  0.68600248    -0.50250
C263        C  0.50320099  0.40009640  0.61529088     0.42280
H264        H  0.41566768  0.54980122  0.73747335     0.06500
N265        N  0.52796329  0.40472556  0.73541576    -0.46960
C266        C  0.38964983  0.40068707  0.49589377     0.42130
N267        N  0.35230840  0.42998711  0.50949495     0.01020
C268        C  0.26883603  0.52359947  0.41002003    -0.06850
H269        H  0.38121294  0.54584030  0.41288258     0.06520
C270        C  0.37570158  0.57437136  0.52524993    -0.07200
Co271      Co  0.31814201  0.45553329  0.45565163     0.74180
N272        N  0.35193910  0.51150354  0.43427387    -0.26380
Co273      Co  0.31854175  0.53577046  0.45910477     0.74070
C274        C  0.39017965  0.58675666  0.49749000     0.42240
N275        N  0.35322396  0.50664015  0.56082027     0.00640
N276        N  0.35245982  0.55802678  0.48431359     0.00750
N277        N  0.26943273  0.47168640  0.40756274    -0.47230
H278        H  0.37979756  0.40824214  0.44420227     0.06500
N279        N  0.35169638  0.48102467  0.43309905     0.01030
N280        N  0.28565480  0.55991285  0.48552400     0.00770
C281        C  0.25891515  0.59917428  0.50184298     0.42380
N282        N  0.35299351  0.47619904  0.55971158    -0.25840
C283        C  0.26934637  0.40505243  0.46992730    -0.06760
N284        N  0.37440555  0.41199197  0.52058010    -0.46940
N285        N  0.27021962  0.58477491  0.47633651    -0.47170
C286        C  0.25950518  0.38852067  0.49797993     0.42150
N287        N  0.28485162  0.48161407  0.43199144     0.01020
N288        N  0.28602585  0.47621634  0.56121260    -0.25860
N289        N  0.35195145  0.43082179  0.47906858    -0.26350
N290        N  0.28681698  0.50650643  0.56425573     0.00660
H291        H  0.26646115  0.43980128  0.58818525     0.06550
H292        H  0.26690728  0.58397848  0.55250925     0.06580
N293        N  0.28538777  0.51210886  0.43346104    -0.26400
N294        N  0.35256652  0.55679051  0.51474599    -0.26010
N295        N  0.28525934  0.42934250  0.51036721     0.01020
C296        C  0.39001353  0.49391413  0.40497364     0.42420
C297        C  0.37597544  0.46540942  0.57743993    -0.07260
N298        N  0.28584902  0.55738629  0.51590410    -0.26010
H299        H  0.38112292  0.57854336  0.54925435     0.06570
N300        N  0.37403185  0.46951627  0.41564472    -0.47230
H301        H  0.38101835  0.44132445  0.58198793     0.06560
C302        C  0.26150803  0.49025084  0.60426308     0.42260
C303        C  0.37483996  0.41286586  0.46826105    -0.06760
Co304      Co  0.31887993  0.45273792  0.53526540     0.73820
N305        N  0.37521193  0.51777601  0.57872729    -0.46950
C306        C  0.25853669  0.49668017  0.39204974     0.42520
N307        N  0.27007032  0.40548549  0.52177846    -0.46940
Co308      Co  0.31931008  0.53204577  0.53914864     0.73890
C309        C  0.26844016  0.57979760  0.52802845    -0.07270
C310        C  0.37545545  0.52185968  0.41695783    -0.06830
N311        N  0.28552833  0.42951172  0.47988756    -0.26360
N312        N  0.37450758  0.57592999  0.47297408    -0.47120
H313        H  0.26847543  0.54784877  0.40428044     0.06530
C314        C  0.26884768  0.46424973  0.58390411    -0.07240
Cl315      Cl  0.31804930  0.49406903  0.49721162    -0.50250
C316        C  0.39062927  0.49309810  0.58971378     0.42280
H317        H  0.26938122  0.39690116  0.44632331     0.06500
N318        N  0.27302371  0.51570677  0.59006612    -0.46960
C319        C  0.88987328  0.58660807  0.00031792     0.42130
N320        N  0.85236275  0.55793885  0.98642601     0.01020
C321        C  0.76617220  0.46243070  0.08204390    -0.06850
H322        H  0.87897391  0.43878510  0.08135260     0.06520
C323        C  0.87434074  0.41359327  0.96770643    -0.07200
Co324      Co  0.81820891  0.53121779  0.04033019     0.74180
N325        N  0.85111875  0.47443796  0.06007309    -0.26380
Co326      Co  0.81722314  0.45172074  0.03455275     0.74070
C327        C  0.88880652  0.40103403  0.99537490     0.42240
N328        N  0.85152970  0.48208608  0.93335280     0.00640
N329        N  0.85089720  0.42951228  0.00886002     0.00750
N330        N  0.76998218  0.51374833  0.08938020    -0.47230
H331        H  0.88026301  0.57770165  0.05192130     0.06500
N332        N  0.85159336  0.50485327  0.06193765     0.01030
N333        N  0.78384536  0.42892203  0.00853705     0.00770
C334        C  0.75714217  0.38914541  0.99442884     0.42380
N335        N  0.85195841  0.51251955  0.93522987    -0.25840
C336        C  0.76805812  0.58034780  0.02922172    -0.06760
N337        N  0.87445460  0.57605534  0.97554511    -0.46940
N338        N  0.76800803  0.40499790  0.01897903    -0.47170
C339        C  0.75871945  0.59957986  0.00289482     0.42150
N340        N  0.78493483  0.50510272  0.06403794     0.01020
N341        N  0.78518993  0.51378915  0.93445207    -0.25860
N342        N  0.85211262  0.55627352  0.01685402    -0.26350
N343        N  0.78481521  0.48339400  0.93160255     0.00660
H344        H  0.76717347  0.55073588  0.90707665     0.06550
H345        H  0.76841060  0.39903188  0.94318617     0.06580
N346        N  0.78415497  0.47489278  0.06030488    -0.26400
N347        N  0.85105356  0.43104167  0.97844586    -0.26010
N348        N  0.78560842  0.56042734  0.98687478     0.01020
C349        C  0.88890944  0.49023833  0.09052891     0.42420
C350        C  0.87540276  0.52308501  0.91791397    -0.07260
N351        N  0.78454480  0.43000962  0.97808693    -0.26010
H352        H  0.87991023  0.40967390  0.94365379     0.06570
N353        N  0.87370775  0.51532558  0.08011531    -0.47230
H354        H  0.88118429  0.54711599  0.91418513     0.06560
C355        C  0.75793681  0.50023577  0.89284767     0.42260
C356        C  0.87513957  0.57376825  0.02780925    -0.06760
Co357      Co  0.81851987  0.53647143  0.96051136     0.73820
N358        N  0.87356176  0.47081416  0.91536477    -0.46950
C359        C  0.75790074  0.48799472  0.10263960     0.42520
N360        N  0.77058114  0.58547737  0.97755351    -0.46940
Co361      Co  0.81765023  0.45641489  0.95499579     0.73890
C362        C  0.76807989  0.40619936  0.96708021    -0.07270
C363        C  0.87400083  0.46301462  0.07756404    -0.06830
N364        N  0.78534310  0.55764973  0.01724881    -0.26360
N365        N  0.87300340  0.41157640  0.02000111    -0.47120
H366        H  0.76357449  0.43787596  0.08523023     0.06530
C367        C  0.76800100  0.52625499  0.91203955    -0.07240
Cl368      Cl  0.81749366  0.49397857  0.99758712    -0.50250
C369        C  0.88962577  0.49530591  0.90507639     0.42280
H370        H  0.76682021  0.58564020  0.05359730     0.06500
N371        N  0.76934383  0.47454614  0.90677012    -0.46960
C372        C  0.00608015  0.39970621  0.87954720     0.42130
N373        N  0.99298528  0.42947869  0.84244898     0.01020
C374        C  0.09350754  0.52356598  0.75990145    -0.06850
H375        H  0.09127511  0.54396714  0.87320611     0.06520
C376        C  0.97856964  0.57366090  0.86821961    -0.07200
Co377      Co  0.04762827  0.45551652  0.80899856     0.74180
N378        N  0.06927223  0.51031686  0.84379871    -0.26380
Co379      Co  0.04489568  0.53537345  0.81062889     0.74070
C380        C  0.00630700  0.58529810  0.88308141     0.42240
N381        N  0.94258923  0.50696063  0.84395414     0.00640
N382        N  0.01958743  0.55721648  0.84483373     0.00750
N383        N  0.09682374  0.47167697  0.76123979    -0.47230
H384        H  0.05788097  0.40720292  0.87012596     0.06500
N385        N  0.07003779  0.47984231  0.84323244     0.01030
N386        N  0.01929262  0.56054827  0.77812191     0.00770
C387        C  0.00405253  0.60021148  0.75156814     0.42380
N388        N  0.94324722  0.47648844  0.84331712    -0.25840
C389        C  0.03551707  0.40829774  0.75796814    -0.06760
N390        N  0.98160544  0.41131516  0.86428883    -0.46940
N391        N  0.02912257  0.58548915  0.76326757    -0.47170
C392        C  0.00915706  0.38877535  0.75004213     0.42150
N393        N  0.07214542  0.48162891  0.77650048     0.01020
N394        N  0.94233184  0.47762929  0.77645425    -0.25860
N395        N  0.02342930  0.43020845  0.84223607    -0.26350
N396        N  0.94072418  0.50811182  0.77739219     0.00660
H397        H  0.91230672  0.44311461  0.75771965     0.06550
H398        H  0.95311214  0.58741900  0.75978670     0.06580
N399        N  0.07041471  0.51209780  0.77696443    -0.26400
N400        N  0.98916282  0.55641889  0.84475122    -0.26010
N401        N  0.99348053  0.42871021  0.77586249     0.01020
C402        C  0.09853972  0.49182726  0.88139257     0.42420
C403        C  0.92537619  0.46578110  0.86627713    -0.07260
N404        N  0.98889181  0.55856134  0.77799524    -0.26010
H405        H  0.95455929  0.57812009  0.87359384     0.06570
N406        N  0.08750535  0.46777734  0.86520928    -0.47230
H407        H  0.92063646  0.44172488  0.87116179     0.06560
C408        C  0.90016652  0.49451511  0.75182777     0.42260
C409        C  0.03389678  0.41191874  0.86498951    -0.06760
Co410      Co  0.96777776  0.45278355  0.80917794     0.73820
N411        N  0.92485527  0.51816226  0.86622474    -0.46950
C412        C  0.11181645  0.49670879  0.74992745     0.42520
N413        N  0.98393828  0.40344681  0.76151369    -0.46940
Co414      Co  0.96513479  0.53268435  0.81073670     0.73890
C415        C  0.97737909  0.58158538  0.76090049    -0.07270
C416        C  0.08678069  0.52011705  0.86728814    -0.06830
N417        N  0.02386422  0.43106168  0.77532968    -0.26360
N418        N  0.03087187  0.57447328  0.86730255    -0.47120
H419        H  0.09971404  0.54775724  0.75923908     0.06530
C420        C  0.91878413  0.46716584  0.75946347    -0.07240
Cl421      Cl  0.00636270  0.49408366  0.80943877    -0.50250
C422        C  0.91351765  0.49351961  0.88137339     0.42280
H423        H  0.05984807  0.40323944  0.75595144     0.06500
N424        N  0.91571420  0.51888612  0.76345437    -0.46960
C425        C  0.12124694  0.39601038  0.99821033     0.42130
N426        N  0.15898679  0.42475046  0.98505561     0.01020
C427        C  0.24299105  0.51752996  0.08473913    -0.06850
H428        H  0.13177442  0.54110680  0.08302185     0.06520
C429        C  0.13697095  0.56910543  0.96985138    -0.07200
Co430      Co  0.19296517  0.45000403  0.03956269     0.74180
N431        N  0.15972442  0.50610772  0.06075588    -0.26380
Co432      Co  0.19372490  0.52949035  0.03589676     0.74070
C433        C  0.12237580  0.58094824  0.99779348     0.42240
N434        N  0.16000003  0.50172453  0.93391279     0.00640
N435        N  0.16024198  0.55224580  0.01063268     0.00750
N436        N  0.24008717  0.46579375  0.08946069    -0.47230
H437        H  0.13062353  0.40335121  0.05003783     0.06500
N438        N  0.15934714  0.47565469  0.06185818     0.01030
N439        N  0.22726445  0.55291674  0.01030973     0.00770
C440        C  0.25252643  0.59389105  0.99692258     0.42380
N441        N  0.15963766  0.47125893  0.93494548    -0.25840
C442        C  0.24288914  0.40114669  0.02746937    -0.06760
N443        N  0.13684244  0.40714149  0.97372148    -0.46940
N444        N  0.24241885  0.57701262  0.02117070    -0.47170
C445        C  0.25022524  0.38110958  0.00116628     0.42150
N446        N  0.22597725  0.47539937  0.06404664     0.01020
N447        N  0.22644239  0.47008655  0.93424153    -0.25860
N448        N  0.15913563  0.42555985  0.01551012    -0.26350
N449        N  0.22670953  0.50056932  0.93225577     0.00660
H450        H  0.24484525  0.43418177  0.90555439     0.06550
H451        H  0.24203248  0.58519586  0.94564532     0.06580
N452        N  0.22641137  0.50578862  0.06159635    -0.26400
N453        N  0.16021750  0.55144886  0.98020064    -0.26010
N454        N  0.22541406  0.42169784  0.98544385     0.01020
C455        C  0.12192651  0.48939212  0.09090477     0.42420
C456        C  0.13635140  0.46115958  0.91729181    -0.07260
N457        N  0.22662697  0.55261264  0.97982598    -0.26010
H458        H  0.13152868  0.57361767  0.94589431     0.06570
N459        N  0.13721627  0.46462796  0.07984267    -0.47230
H460        H  0.13065865  0.43723727  0.91289743     0.06560
C461        C  0.25396590  0.48514238  0.89317310     0.42260
C462        C  0.13593726  0.40790644  0.02603330    -0.06760
Co463      Co  0.19290909  0.44666519  0.95967176     0.73820
N464        N  0.13808086  0.51347770  0.91619945    -0.46950
C465        C  0.25118025  0.49105397  0.10420681     0.42520
N466        N  0.23910680  0.39594634  0.97595083    -0.46940
Co467      Co  0.19372059  0.52679231  0.95619313     0.73890
C468        C  0.24251326  0.57710055  0.96929126    -0.07270
C469        C  0.13677440  0.51700094  0.07857545    -0.06830
N470        N  0.22604737  0.42430201  0.01581256    -0.26360
N471        N  0.13806503  0.56986796  0.02217741    -0.47120
H472        H  0.24443739  0.54192988  0.08978582     0.06530
C473        C  0.24388602  0.45844105  0.91150305    -0.07240
Cl474      Cl  0.19378100  0.48821201  0.99783984    -0.50250
C475        C  0.12214963  0.48928119  0.90519276     0.42280
H476        H  0.24490166  0.39632212  0.05182810     0.06500
N477        N  0.24228702  0.51031124  0.90773585    -0.46960
C478        C  0.00696965  0.58250356  0.11603059     0.42130
N479        N  0.99326828  0.55303305  0.15316917     0.01020
C480        C  0.09116174  0.45729239  0.23627938    -0.06850
H481        H  0.08964280  0.43605118  0.12360439     0.06520
C482        C  0.97666231  0.40918193  0.12814045    -0.07200
Co483      Co  0.04732321  0.52666158  0.18661216     0.74180
N484        N  0.06814063  0.47069533  0.15251188    -0.26380
Co485      Co  0.04299131  0.44653956  0.18574489     0.74070
C486        C  0.00434096  0.39678248  0.11349164     0.42240
N487        N  0.94127538  0.47673140  0.15174665     0.00640
N488        N  0.01769749  0.42483899  0.15160031     0.00750
N489        N  0.09627609  0.50900428  0.23444848    -0.47230
H490        H  0.05860045  0.57407509  0.12539429     0.06500
N491        N  0.06963459  0.50115208  0.15278800     0.01030
N492        N  0.01672753  0.42227226  0.21839420     0.00770
C493        C  0.00101391  0.38286400  0.24503782     0.42380
N494        N  0.94275691  0.50715780  0.15228214    -0.25840
C495        C  0.03328441  0.57800630  0.23479796    -0.06760
N496        N  0.98223318  0.57144281  0.13134815    -0.46940
N497        N  0.02623993  0.39739954  0.23356480    -0.47170
C498        C  0.00525167  0.59455212  0.24466849     0.42150
N499        N  0.07116585  0.50000352  0.21949075     0.01020
N500        N  0.94140926  0.50627552  0.21920793    -0.25860
N501        N  0.02369809  0.55175662  0.15324365    -0.26350
N502        N  0.93873866  0.47593362  0.21850043     0.00660
H503        H  0.91323675  0.54230174  0.23818679     0.06550
H504        H  0.95018601  0.39643485  0.23648777     0.06580
N505        N  0.06850359  0.46957639  0.21927477    -0.26400
N506        N  0.98727998  0.42630383  0.15154356    -0.26010
N507        N  0.99283793  0.55282182  0.22033486     0.01020
C508        C  0.09824921  0.48783001  0.11487641     0.42420
C509        C  0.92528649  0.51843997  0.12934690    -0.07260
N510        N  0.98634413  0.42458973  0.21827598    -0.26010
H511        H  0.95263496  0.40523251  0.12270232     0.06570
N512        N  0.08761583  0.51240723  0.13073724    -0.47230
H513        H  0.92118051  0.54264138  0.12449080     0.06560
C514        C  0.89942544  0.49149095  0.24539971     0.42260
C515        C  0.03452693  0.56974446  0.13047258    -0.06760
Co516      Co  0.96748118  0.53002502  0.18652370     0.73820
N517        N  0.92331767  0.46609522  0.12950622    -0.46950
C518        C  0.11037820  0.48340129  0.24590434     0.42520
N519        N  0.98149964  0.57690757  0.23526904    -0.46940
Co520      Co  0.96315359  0.45065391  0.18528762     0.73890
C521        C  0.97452368  0.40180344  0.23544715    -0.07270
C522        C  0.08566057  0.46009560  0.12922737    -0.06830
N523        N  0.02333626  0.55288731  0.21951153    -0.26360
N524        N  0.02893706  0.40713672  0.12930166    -0.47120
H525        H  0.09647046  0.43286222  0.23701952     0.06530
C526        C  0.91873300  0.51793422  0.23669049    -0.07240
Cl527      Cl  0.00524961  0.48847571  0.18647095    -0.50250
C528        C  0.91270745  0.49111655  0.11431348     0.42280
H529        H  0.05668956  0.58663276  0.23391580     0.06500
N530        N  0.91360634  0.46632137  0.23319179    -0.46960
C531        C  0.91247902  0.37712925  0.99696955     0.42130
N532        N  0.94040114  0.33878420  0.98350043     0.01020
C533        C  0.03152460  0.25115861  0.08177286    -0.06850
H534        H  0.05717593  0.36237576  0.08141327     0.06520
C535        C  0.08485884  0.35861832  0.96812810    -0.07200
Co536      Co  0.96491724  0.30393444  0.03763762     0.74180
N537        N  0.02178728  0.33540911  0.05900721    -0.26380
Co538      Co  0.04476335  0.30139587  0.03366545     0.74070
C539        C  0.09729413  0.37245445  0.99613119     0.42240
N540        N  0.01684259  0.33759284  0.93190740     0.00640
N541        N  0.06795595  0.33497045  0.00874479     0.00750
N542        N  0.98003751  0.25597874  0.08714802    -0.47230
H543        H  0.91985290  0.36723502  0.04870398     0.06500
N544        N  0.99137182  0.33648090  0.06013416     0.01030
N545        N  0.06803440  0.26808351  0.00735184     0.00770
C546        C  0.10695631  0.24046770  0.99189423     0.42380
N547        N  0.98642728  0.33812077  0.93316413    -0.25840
C548        C  0.91313550  0.25693434  0.02437109    -0.06760
N549        N  0.92311710  0.36141944  0.97233569    -0.46940
N550        N  0.09224644  0.25201632  0.01701976    -0.47170
C551        C  0.89561666  0.24789310  0.99686584     0.42150
N552        N  0.98981544  0.26989066  0.06161800     0.01020
N553        N  0.98469414  0.27120658  0.93178259    -0.25860
N554        N  0.94137352  0.33851049  0.01393895    -0.26350
N555        N  0.01505002  0.27076192  0.92928494     0.00660
H556        H  0.94828927  0.25305264  0.90404824     0.06550
H557        H  0.09470537  0.25029512  0.94096747     0.06580
N558        N  0.02018429  0.26853013  0.05887073    -0.26400
N559        N  0.06686847  0.33555627  0.97830482    -0.26010
N560        N  0.93725608  0.27187991  0.98320149     0.01020
C561        C  0.00568996  0.37325552  0.08945844     0.42420
C562        C  0.97616834  0.36156981  0.91564714    -0.07260
N563        N  0.06626179  0.26870660  0.97693736    -0.26010
H564        H  0.08923520  0.36441173  0.94420270     0.06570
N565        N  0.98073374  0.35865913  0.07829465    -0.47230
H566        H  0.95222779  0.36733802  0.91142386     0.06560
C567        C  0.99901086  0.24368705  0.89042865     0.42260
C568        C  0.92425135  0.36203781  0.02465410    -0.06760
Co569      Co  0.96195771  0.30469275  0.95777190     0.73820
N570        N  0.02842619  0.35957019  0.91403309    -0.46950
C571        C  0.00503691  0.24393065  0.10162032     0.42520
N572        N  0.91240919  0.25785727  0.97248015    -0.46940
Co573      Co  0.04149845  0.30288892  0.95380363     0.73890
C574        C  0.08884390  0.25107519  0.96523698    -0.07270
C575        C  0.03302634  0.35791872  0.07700684    -0.06830
N576        N  0.93796000  0.27211304  0.01370343    -0.26360
N577        N  0.08609309  0.35655165  0.02040597    -0.47120
H578        H  0.05583980  0.24909152  0.08700065     0.06530
C579        C  0.97265805  0.25391650  0.90928715    -0.07240
Cl580      Cl  0.00327315  0.30278048  0.99571994    -0.50250
C581        C  0.00409541  0.37571324  0.90325127     0.42280
H582        H  0.90546968  0.25741592  0.04816394     0.06500
N583        N  0.02438531  0.25528065  0.90453209    -0.46960
C584        C  0.91382756  0.61032236  0.99897726     0.42130
N585        N  0.94349727  0.64706212  0.01285510     0.01020
C586        C  0.04017205  0.72935138  0.91440329    -0.06850
H587        H  0.05994148  0.61682686  0.91529705     0.06520
C588        C  0.08706237  0.61935269  0.02792535    -0.07200
Co589      Co  0.97071986  0.68072677  0.95870190     0.74180
N590        N  0.02566824  0.64575658  0.93737728    -0.26380
Co591      Co  0.05005733  0.67856567  0.96238488     0.74070
C592        C  0.09886635  0.60490092  0.99990498     0.42240
N593        N  0.02009382  0.64438011  0.06406440     0.00640
N594        N  0.07144596  0.64382574  0.98730396     0.00750
N595        N  0.98849283  0.72790432  0.90923911    -0.47230
H596        H  0.92238724  0.62013270  0.94736781     0.06500
N597        N  0.99526522  0.64636557  0.93620417     0.01030
N598        N  0.07447499  0.71091391  0.98809282     0.00770
C599        C  0.11503835  0.73658479  0.00168467     0.42380
N600        N  0.98966501  0.64531905  0.06305214    -0.25840
C601        C  0.92424984  0.73266517  0.97080259    -0.06760
N602        N  0.92503655  0.62526022  0.02377089    -0.46940
N603        N  0.09849392  0.72639063  0.97731463    -0.47170
C604        C  0.90388312  0.74035827  0.99676270     0.42150
N605        N  0.99740344  0.71308403  0.93452287     0.01020
N606        N  0.99143188  0.71194672  0.06483306    -0.25860
N607        N  0.94480538  0.64755103  0.98240724    -0.26350
N608        N  0.02194316  0.71132608  0.06565253     0.00660
H609        H  0.95738573  0.72985685  0.09620155     0.06550
H610        H  0.10635259  0.72439753  0.05289332     0.06580
N611        N  0.02771996  0.71254623  0.93713057    -0.26400
N612        N  0.07024480  0.64328380  0.01771518    -0.26010
N613        N  0.94310566  0.71369005  0.01299178     0.01020
C614        C  0.00810913  0.60866146  0.90719862     0.42420
C615        C  0.97843073  0.62231420  0.08054620    -0.07260
N616        N  0.07405392  0.70969792  0.01852976    -0.26010
H617        H  0.09122418  0.61348633  0.05185318     0.06570
N618        N  0.98371623  0.62466227  0.91813658    -0.47230
H619        H  0.95427573  0.61766228  0.08488312     0.06560
C620        C  0.00897893  0.73818507  0.10577041     0.42260
C621        C  0.92663095  0.62503987  0.97147296    -0.06760
Co622      Co  0.96659010  0.67983508  0.03872947     0.73820
N623        N  0.03071090  0.62175059  0.08171196    -0.46950
C624        C  0.01420746  0.73849035  0.89480924     0.42520
N625        N  0.91769045  0.72826375  0.02215471    -0.46940
Co626      Co  0.04676044  0.67742880  0.04183577     0.73890
C627        C  0.09852553  0.72531280  0.02921473    -0.07270
C628        C  0.03599066  0.62257440  0.91961548    -0.06830
N629        N  0.94630716  0.71461072  0.98266319    -0.26360
N630        N  0.08857849  0.62133316  0.97562278    -0.47120
H631        H  0.06462450  0.73020790  0.90945999     0.06530
C632        C  0.98121686  0.72892104  0.08871288    -0.07240
Cl633      Cl  0.00851535  0.67956945  0.00042794    -0.50250
C634        C  0.00574805  0.60677460  0.09261844     0.42280
H635        H  0.92023145  0.73531186  0.94638430     0.06500
N636        N  0.03304819  0.72633860  0.08973629    -0.46960
C637        C  0.50978753  0.87689933  0.90433765     0.42130
N638        N  0.52360612  0.83884052  0.93258960     0.01020
C639        C  0.42248770  0.75472390  0.02381752    -0.06850
H640        H  0.42438026  0.86471921  0.04815515     0.06520
C641        C  0.53729214  0.86078335  0.07705308    -0.07200
Co642      Co  0.46961269  0.80412558  0.95727773     0.74180
N643        N  0.44722216  0.83717889  0.01328580    -0.26380
Co644      Co  0.47186779  0.80360749  0.03691882     0.74070
C645        C  0.50927477  0.87526403  0.08878642     0.42240
N646        N  0.57390427  0.83838529  0.00994983     0.00640
N647        N  0.49670935  0.83739371  0.05998786     0.00750
N648        N  0.42140627  0.75534722  0.97191685    -0.47230
H649        H  0.45819649  0.86666045  0.91174787     0.06500
N650        N  0.44630612  0.83741865  0.98286637     0.01030
N651        N  0.49726055  0.77024344  0.06055947     0.00770
C652        C  0.50952871  0.74437685  0.10150823     0.42380
N653        N  0.57293066  0.83860935  0.97951511    -0.25840
C654        C  0.48381985  0.75626913  0.90655374    -0.06760
N655        N  0.53459638  0.86148482  0.91517140    -0.46940
N656        N  0.48579883  0.75474526  0.08421692    -0.47170
C657        C  0.51153119  0.74713953  0.88912930     0.42150
N658        N  0.44594996  0.77016804  0.98240187     0.01020
N659        N  0.57470449  0.77173272  0.97897045    -0.25860
N660        N  0.49317568  0.83837984  0.93342575    -0.26350
N661        N  0.57634514  0.77150819  0.00941903     0.00660
H662        H  0.60339321  0.75290324  0.94334110     0.06550
H663        H  0.56104107  0.75518175  0.09411037     0.06580
N664        N  0.44664808  0.77066828  0.01289634    -0.26400
N665        N  0.52714474  0.83755903  0.05939137    -0.26010
N666        N  0.52461871  0.77183013  0.93047328     0.01020
C667        C  0.41669856  0.87450847  0.99649550     0.42420
C668        C  0.58967579  0.86243088  0.96906065    -0.07260
N669        N  0.52773820  0.77105813  0.06089388    -0.26010
H670        H  0.56119315  0.86624295  0.08167015     0.06570
N671        N  0.42807468  0.85936405  0.97177039    -0.47230
H672        H  0.59371848  0.86822017  0.94507662     0.06560
C673        C  0.61551359  0.74404425  0.99443201     0.42260
C674        C  0.48227502  0.86165164  0.91613055    -0.06760
Co675      Co  0.54922035  0.80496575  0.95513408     0.73820
N676        N  0.59075559  0.86109867  0.02136980    -0.46950
C677        C  0.40511697  0.74513301  0.99664394     0.42520
N678        N  0.53569330  0.75759092  0.90576491    -0.46940
Co679      Co  0.55170198  0.80428591  0.03517504     0.73890
C680        C  0.53762387  0.75484588  0.08549852    -0.07270
C681        C  0.42906984  0.85985977  0.02409030    -0.06830
N682        N  0.49414851  0.77191443  0.93111383    -0.26360
N683        N  0.48498943  0.85952312  0.07757916    -0.47120
H684        H  0.41467535  0.75529026  0.04757034     0.06530
C685        C  0.59745520  0.75413208  0.96758287    -0.07240
Cl686      Cl  0.51060710  0.80379024  0.99610736    -0.50250
C687        C  0.60112929  0.87725413  0.99687286     0.42280
H688        H  0.46005001  0.75653637  0.89899772     0.06500
N689        N  0.60073982  0.75590849  0.01940733    -0.46960
C690        C  0.60116587  0.99699499  0.88205879     0.42130
N691        N  0.57277460  0.98306474  0.84439221     0.01020
C692        C  0.47896941  0.08372629  0.76152396    -0.06850
H693        H  0.45394162  0.07799440  0.87259859     0.06520
C694        C  0.42919785  0.96474382  0.86666382    -0.07200
Co695      Co  0.54602236  0.03702071  0.81063568     0.74180
N696        N  0.48943856  0.05729447  0.84414635    -0.26380
Co697      Co  0.46655351  0.03278969  0.81027053     0.74070
C698        C  0.41613812  0.99199823  0.88139283     0.42240
N699        N  0.49727593  0.93048087  0.84372466     0.00640
N700        N  0.44445395  0.00647662  0.84373939     0.00750
N701        N  0.53083498  0.08492499  0.76178725    -0.47230
H702        H  0.59211676  0.04862823  0.87267214     0.06500
N703        N  0.51981838  0.05891074  0.84439864     0.01030
N704        N  0.44364361  0.00696894  0.77672984     0.00770
C705        C  0.40358029  0.99216282  0.75063851     0.42380
N706        N  0.52766727  0.93205663  0.84386746    -0.25840
C707        C  0.59576550  0.02617325  0.76174538    -0.06760
N708        N  0.59082013  0.97218597  0.86650656    -0.46940
N709        N  0.41925511  0.01699385  0.76135921    -0.47170
C710        C  0.61582233  0.00005063  0.75381577     0.42150
N711        N  0.52040060  0.06067597  0.77723520     0.01020
N712        N  0.52809410  0.93044487  0.77758715    -0.25860
N713        N  0.57094173  0.01350642  0.84435683    -0.26350
N714        N  0.49760204  0.92994295  0.77665856     0.00660
H715        H  0.56251517  0.89765012  0.76305148     0.06550
H716        H  0.41587666  0.94096667  0.76082443     0.06580
N717        N  0.48995073  0.05965381  0.77775884    -0.26400
N718        N  0.44647227  0.97606622  0.84361898    -0.26010
N719        N  0.57519775  0.98350014  0.77781551     0.01020
C720        C  0.50534836  0.08668465  0.88245392     0.42420
C721        C  0.53854696  0.91425316  0.86675059    -0.07260
N722        N  0.44520761  0.97652501  0.77723356    -0.26010
H723        H  0.42556079  0.94053762  0.87176977     0.06570
N724        N  0.53039998  0.07653223  0.86693905    -0.47230
H725        H  0.56263170  0.91014982  0.87194014     0.06560
C726        C  0.51132651  0.88856275  0.75212239     0.42260
C727        C  0.58830343  0.02449549  0.86744640    -0.06760
Co728      Co  0.55125555  0.95708199  0.81055999     0.73820
N729        N  0.48630728  0.91204299  0.86555032    -0.46950
C730        C  0.50622962  0.10085168  0.75084411     0.42520
N731        N  0.60107017  0.97445271  0.76412510    -0.46940
Co732      Co  0.47152499  0.95302217  0.81000489     0.73890
C733        C  0.42161504  0.96513817  0.76089017    -0.07270
C734        C  0.47811788  0.07426501  0.86742653    -0.06830
N735        N  0.57236939  0.01391841  0.77776618    -0.26360
N736        N  0.42625797  0.01706313  0.86595367    -0.47120
H737        H  0.45510594  0.09117717  0.76180992     0.06530
C738        C  0.53884127  0.90562825  0.76221577    -0.07240
Cl739      Cl  0.50886031  0.99497514  0.80989090    -0.50250
C740        C  0.51104332  0.90127437  0.88105806     0.42280
H741        H  0.60071545  0.05062527  0.76084848     0.06500
N742        N  0.48699773  0.90556835  0.76177804    -0.46960
C743        C  0.50609938  0.11003737  0.90658654     0.42130
N744        N  0.49171175  0.14743945  0.93530510     0.01020
C745        C  0.59069888  0.23029121  0.02873224    -0.06850
H746        H  0.58915000  0.11940700  0.05198127     0.06520
C747        C  0.47433846  0.12276732  0.07917449    -0.07200
Co748      Co  0.54505120  0.18140980  0.96140295     0.74180
N749        N  0.56648858  0.14724736  0.01727247    -0.26380
Co750      Co  0.54112487  0.18028328  0.04111161     0.74070
C751        C  0.50191475  0.10810401  0.09149276     0.42240
N752        N  0.43934829  0.14605208  0.01158164     0.00640
N753        N  0.51552592  0.14608678  0.06309178     0.00750
N754        N  0.59112303  0.23144043  0.97687195    -0.47230
H755        H  0.55754044  0.11989069  0.91508480     0.06500
N756        N  0.56809640  0.14770069  0.98686582     0.01030
N757        N  0.51486789  0.21307918  0.06503659     0.00770
C758        C  0.50069842  0.23846851  0.10574882     0.42380
N759        N  0.44093594  0.14660287  0.98116306    -0.25840
C760        C  0.53212521  0.23014823  0.91098667    -0.06760
N761        N  0.48106884  0.12527705  0.91723040    -0.46940
N762        N  0.52526216  0.22798062  0.08951648    -0.47170
C763        C  0.50477430  0.24087617  0.89398434     0.42150
N764        N  0.56762101  0.21502062  0.98734642     0.01020
N765        N  0.43955842  0.21363236  0.98175626    -0.25860
N766        N  0.52211246  0.14770908  0.93672627    -0.26350
N767        N  0.43634565  0.21258024  0.01206641     0.00660
H768        H  0.41224799  0.23277466  0.94542276     0.06550
H769        H  0.44956456  0.22818140  0.09588564     0.06580
N770        N  0.56698387  0.21375592  0.01779511    -0.26400
N771        N  0.48509824  0.14605201  0.06183716    -0.26010
N772        N  0.49085870  0.21470992  0.93447758     0.01020
C773        C  0.59818157  0.11083272  0.00027644     0.42420
C774        C  0.42375227  0.12343666  0.97001561    -0.07260
N775        N  0.48436540  0.21250345  0.06411853    -0.26010
H776        H  0.45028482  0.11746797  0.08331651     0.06570
N777        N  0.58703628  0.12635410  0.97568313    -0.47230
H778        H  0.41987232  0.11845130  0.94586411     0.06560
C779        C  0.39587344  0.23714673  0.99577992     0.42260
C780        C  0.53337474  0.12482558  0.91919354    -0.06760
Co781      Co  0.46560890  0.18090877  0.95792901     0.73820
N782        N  0.42163022  0.12355811  0.02230363    -0.46950
C783        C  0.60717875  0.24209574  0.00140322     0.42520
N784        N  0.48029618  0.23013205  0.91028439    -0.46940
Co785      Co  0.46099500  0.17964070  0.03764955     0.73890
C786        C  0.47339966  0.22850208  0.08836207    -0.07270
C787        C  0.58482079  0.12462695  0.02793541    -0.06830
N788        N  0.52127924  0.21410208  0.93520458    -0.26360
N789        N  0.52661051  0.12378837  0.08087488    -0.47120
H790        H  0.59818928  0.22917113  0.05244486     0.06530
C791        C  0.41659324  0.23049077  0.96984183    -0.07240
Cl792      Cl  0.50317959  0.18098347  0.99953206    -0.50250
C793        C  0.41126027  0.10822980  0.99738349     0.42280
H794        H  0.55588949  0.22908520  0.90355109     0.06500
N795        N  0.41020043  0.22579363  0.02118979    -0.46960
C796        C  0.50705294  0.89906827  0.11244699     0.42130
N797        N  0.51951428  0.92768684  0.15047258     0.01020
C798        C  0.41433583  0.01511133  0.23400396    -0.06850
H799        H  0.41865853  0.04190486  0.12393861     0.06520
C800        C  0.53105696  0.07240699  0.12994262    -0.07200
Co801      Co  0.46446339  0.95105347  0.18439790     0.74180
N802        N  0.44143598  0.00715324  0.15166900    -0.26380
Co803      Co  0.46480207  0.03096506  0.18586724     0.74070
C804        C  0.50336247  0.08423047  0.11519693     0.42240
N805        N  0.56825951  0.00586752  0.15199373     0.00640
N806        N  0.49003895  0.05494935  0.15261498     0.00750
N807        N  0.41565511  0.96321334  0.23270893    -0.47230
H808        H  0.45512061  0.90552638  0.12184971     0.06500
N809        N  0.44123038  0.97667949  0.15108877     0.01030
N810        N  0.48936231  0.05481380  0.21984374     0.00770
C811        C  0.50158243  0.09517453  0.24676599     0.42380
N812        N  0.56780629  0.97540611  0.15155058    -0.25840
C813        C  0.47886400  0.90040406  0.23265058    -0.06760
N814        N  0.53130995  0.91034005  0.12819083    -0.46940
N815        N  0.47778767  0.07824233  0.23576692    -0.47170
C816        C  0.50682937  0.88384862  0.24254757     0.42150
N817        N  0.43971611  0.97507590  0.21810634     0.01020
N818        N  0.56905391  0.97430082  0.21790698    -0.25860
N819        N  0.48909083  0.92803319  0.15040977    -0.26350
N820        N  0.56915189  0.00481333  0.21897910     0.00660
H821        H  0.60132440  0.93988538  0.23291923     0.06550
H822        H  0.55306898  0.08810447  0.23524581     0.06580
N823        N  0.43922569  0.00561024  0.21806342    -0.26400
N824        N  0.52047701  0.05446984  0.15281103    -0.26010
N825        N  0.51935376  0.92523905  0.21743424     0.01020
C826        C  0.41232561  0.99016305  0.11354080     0.42420
C827        C  0.58566754  0.96533928  0.12837231    -0.07260
N828        N  0.51985460  0.05524449  0.21913998    -0.26010
H829        H  0.55505689  0.07717791  0.12491850     0.06570
N830        N  0.42384485  0.96547302  0.12866935    -0.47230
H831        H  0.59056090  0.94142682  0.12288936     0.06560
C832        C  0.61010401  0.99109417  0.24403361     0.42260
C833        C  0.47900042  0.91048965  0.12709423    -0.06760
Co834      Co  0.54408828  0.95040675  0.18464009     0.73820
N835        N  0.58602882  0.01770179  0.13005510    -0.46950
C836        C  0.39809143  0.98680636  0.24322324     0.42520
N837        N  0.53073714  0.90104138  0.23226762    -0.46940
Co838      Co  0.54472842  0.03031368  0.18605619     0.73890
C839        C  0.52963739  0.07953252  0.23565454    -0.07270
C840        C  0.42368183  0.01785945  0.12871290    -0.06830
N841        N  0.48889450  0.92507618  0.21681231    -0.26360
N842        N  0.47872486  0.07277979  0.13045640    -0.47120
H843        H  0.40567183  0.03859360  0.23397301     0.06530
C844        C  0.59334855  0.96358849  0.23375331    -0.07240
Cl845      Cl  0.50450037  0.99071007  0.18595404    -0.50250
C846        C  0.59742810  0.99340473  0.11419715     0.42280
H847        H  0.45527985  0.89228375  0.23230095     0.06500
N848        N  0.59334674  0.01557065  0.23408981    -0.46960
C849        C  0.39231931  0.89775530  0.99508106     0.42130
N850        N  0.35376533  0.92549578  0.00857084     0.01020
C851        C  0.27106274  0.01829874  0.90736228    -0.06850
H852        H  0.38123722  0.04408374  0.91316889     0.06520
C853        C  0.37337323  0.07065678  0.02581911    -0.07200
Co854      Co  0.32052707  0.95140562  0.95413733     0.74180
N855        N  0.35326730  0.00841066  0.93402961    -0.26380
Co856      Co  0.31873847  0.03137433  0.95807241     0.74070
C857        C  0.38804338  0.08382366  0.99846727     0.42240
N858        N  0.35135553  0.00165142  0.06041003     0.00640
N859        N  0.35143643  0.05421030  0.98423117     0.00750
N860        N  0.27330393  0.96642534  0.90470372    -0.47230
H861        H  0.38353399  0.90645698  0.94341423     0.06500
N862        N  0.35407713  0.97797068  0.93258845     0.01030
N863        N  0.28462025  0.05452870  0.98342367     0.00770
C864        C  0.25556609  0.09239833  0.99876147     0.42380
N865        N  0.35195604  0.97120162  0.05908124    -0.25840
C866        C  0.27159274  0.90105581  0.96544186    -0.06760
N867        N  0.37616235  0.90788014  0.01972110    -0.46940
N868        N  0.26856011  0.07877029  0.97368271    -0.47170
C869        C  0.26105036  0.88280056  0.99219384     0.42150
N870        N  0.28730108  0.97668746  0.92982105     0.01020
N871        N  0.28558393  0.97002307  0.06015435    -0.25860
N872        N  0.35418484  0.92717680  0.97816192    -0.26350
N873        N  0.28416801  0.00050826  0.06050086     0.00660
H874        H  0.27000417  0.93553824  0.09229152     0.06550
H875        H  0.26341914  0.07893267  0.04970431     0.06580
N876        N  0.28692765  0.00718198  0.93144233    -0.26400
N877        N  0.35094983  0.05255918  0.01462883    -0.26010
N878        N  0.28684861  0.92291801  0.00759043     0.01020
C879        C  0.39207037  0.99266339  0.90487774     0.42420
C880        C  0.37498099  0.96070241  0.07686403    -0.07260
N881        N  0.28408091  0.05198927  0.01377995    -0.26010
H882        H  0.37809880  0.07478982  0.04997973     0.06570
N883        N  0.37690814  0.96750107  0.91509969    -0.47230
H884        H  0.38061304  0.93668162  0.08105586     0.06560
C885        C  0.25737900  0.98667751  0.10046955     0.42260
C886        C  0.37782872  0.91022165  0.96746049    -0.06760
Co887      Co  0.31922486  0.94704356  0.03407156     0.73820
N888        N  0.37299236  0.01303102  0.07864576    -0.46950
C889        C  0.26241896  0.99118819  0.88898283     0.42520
N890        N  0.27149378  0.89832248  0.01726902    -0.46940
Co891      Co  0.31738884  0.02681480  0.03758078     0.73890
C892        C  0.26548577  0.07382123  0.02535052    -0.07270
C893        C  0.37649056  0.01985377  0.91708742    -0.06830
N894        N  0.28776080  0.92460039  0.97716551    -0.26360
N895        N  0.37317026  0.07285832  0.97354136    -0.47120
H896        H  0.27094386  0.04239141  0.90068323     0.06530
C897        C  0.26921455  0.95921179  0.08424461    -0.07240
Cl898      Cl  0.31829229  0.98910750  0.99594431    -0.50250
C899        C  0.38885055  0.98850409  0.08953618     0.42280
H900        H  0.27161700  0.89569052  0.94120163     0.06500
N901        N  0.26780906  0.01112246  0.08403742    -0.46960
C902        C  0.62154511  0.99534281  0.09079164     0.42130
N903        N  0.65980310  0.98208454  0.06259330     0.01020
C904        C  0.74404244  0.08420716  0.97294827    -0.06850
H905        H  0.63320897  0.08038659  0.94714479     0.06520
C906        C  0.63930471  0.96782335  0.91829630    -0.07200
Co907      Co  0.69414701  0.03626596  0.03851938     0.74180
N908        N  0.66147478  0.05857911  0.98204018    -0.26380
Co909      Co  0.69542016  0.03413557  0.95832571     0.74070
C910        C  0.62480080  0.99556632  0.90595696     0.42240
N911        N  0.66087763  0.93149399  0.98564923     0.00640
N912        N  0.66206519  0.00885904  0.93516982     0.00750
N913        N  0.74302582  0.08404959  0.02482323    -0.47230
H914        H  0.63126430  0.04716750  0.08386683     0.06500
N915        N  0.66100760  0.05945412  0.01249592     0.01030
N916        N  0.72890764  0.00820343  0.93452602     0.00770
C917        C  0.75621919  0.99302191  0.89526877     0.42380
N918        N  0.66057778  0.93244539  0.01605637    -0.25840
C919        C  0.74137028  0.02118924  0.09059451    -0.06760
N920        N  0.63725259  0.97075288  0.07984058    -0.46940
N921        N  0.74451387  0.01806345  0.91006314    -0.47170
C922        C  0.75106660  0.99274058  0.10659182     0.42150
N923        N  0.72809390  0.05993439  0.01363225     0.01020
N924        N  0.72733758  0.93106478  0.01711457    -0.25860
N925        N  0.65992575  0.01254052  0.06196086    -0.26350
N926        N  0.72746363  0.92869539  0.98675765     0.00660
H927        H  0.74532752  0.90277429  0.05343206     0.06550
H928        H  0.74714607  0.94195186  0.90782169     0.06580
N929        N  0.72792298  0.05974355  0.98308624    -0.26400
N930        N  0.66213440  0.97837762  0.93616974    -0.26010
N931        N  0.72687616  0.98125108  0.06463770     0.01020
C932        C  0.62305498  0.08796764  0.99879312     0.42420
C933        C  0.63770561  0.91444062  0.02650038    -0.07260
N934        N  0.72876583  0.97771588  0.93631919    -0.26010
H935        H  0.63411577  0.94378513  0.91390109     0.06570
N936        N  0.63839741  0.07696045  0.02352603    -0.47230
H937        H  0.63248172  0.90967755  0.05048472     0.06560
C938        C  0.75285828  0.88859847  0.00277892     0.42260
C939        C  0.63649452  0.02314018  0.07926175    -0.06760
Co940      Co  0.69391794  0.95667601  0.04026640     0.73820
N941        N  0.63927930  0.91329588  0.97418719    -0.46950
C942        C  0.75384379  0.10081681  0.00074511     0.42520
N943        N  0.74145533  0.96930872  0.08859562    -0.46940
Co944      Co  0.69511737  0.95383056  0.96097935     0.73890
C945        C  0.74627011  0.96622750  0.91359535    -0.07270
C946        C  0.63829504  0.07608487  0.97121801    -0.06830
N947        N  0.72619238  0.01174484  0.06525824    -0.26360
N948        N  0.64014564  0.02018070  0.91709106    -0.47120
H949        H  0.74388346  0.09247180  0.94935254     0.06530
C950        C  0.74421123  0.90810688  0.02905477    -0.07240
Cl951      Cl  0.69534428  0.99531070  0.99946056    -0.50250
C952        C  0.62366321  0.90206783  0.99866344     0.42280
H953        H  0.74077817  0.04454271  0.09947874     0.06500
N954        N  0.74188981  0.90326480  0.97735844    -0.46960
C955        C  0.00901694  0.87544368  0.59179917     0.42130
N956        N  0.99583661  0.83739205  0.56344879     0.01020
C957        C  0.09360342  0.75349633  0.46816119    -0.06850
H958        H  0.09205549  0.86610293  0.44584711     0.06520
C959        C  0.97917533  0.86082226  0.41904202    -0.07200
Co960      Co  0.05051307  0.80420459  0.53727229     0.74180
N961        N  0.07071747  0.83783916  0.48106884    -0.26380
Co962      Co  0.04600941  0.80409637  0.45754634     0.74070
C963        C  0.00666795  0.87554315  0.40652836     0.42240
N964        N  0.94455738  0.83736698  0.48708108     0.00640
N965        N  0.02051673  0.83797017  0.43528206     0.00750
N966        N  0.10109768  0.75745910  0.51938413    -0.47230
H967        H  0.06076745  0.86650363  0.58330723     0.06500
N968        N  0.07225307  0.83805487  0.51147365     0.01030
N969        N  0.02087600  0.77087983  0.43373069     0.00770
C970        C  0.00744547  0.74424991  0.39378427     0.42380
N971        N  0.94587187  0.83721287  0.51749342    -0.25840
C972        C  0.03815268  0.75533843  0.58766370    -0.06760
N973        N  0.98451314  0.85959259  0.58124839    -0.46940
N974        N  0.03174058  0.75546877  0.40968045    -0.47170
C975        C  0.01105836  0.74581879  0.60586961     0.42150
N976        N  0.07512953  0.77148177  0.51101653     0.01020
N977        N  0.94429507  0.77075637  0.51712925    -0.25860
N978        N  0.02626700  0.83760239  0.56201982    -0.26350
N979        N  0.94365603  0.77035844  0.48661402     0.00660
H980        H  0.91210307  0.75487891  0.55143078     0.06550
H981        H  0.95604044  0.75409195  0.40337945     0.06580
N982        N  0.07146330  0.77084322  0.48080030    -0.26400
N983        N  0.99013592  0.83778914  0.43659486    -0.26010
N984        N  0.99644055  0.77053419  0.56484573     0.01020
C985        C  0.10063462  0.87574380  0.49736893     0.42420
C986        C  0.92865279  0.86051394  0.52844792    -0.07260
N987        N  0.99044933  0.77115896  0.43461495    -0.26010
H988        H  0.95507806  0.86585460  0.41478539     0.06570
N989        N  0.09015894  0.86027334  0.52226702    -0.47230
H990        H  0.92463320  0.86577864  0.55254629     0.06560
C991        C  0.90292696  0.74492429  0.50009087     0.42260
C992        C  0.03676941  0.86093877  0.57935737    -0.06760
Co993      Co  0.97038970  0.80359406  0.54104556     0.73820
N994        N  0.92691572  0.85982040  0.47614099    -0.46950
C995        C  0.11468514  0.74602324  0.49345142     0.42520
N996        N  0.98630735  0.75610109  0.58986065    -0.46940
Co997      Co  0.96691331  0.80387224  0.46109812     0.73890
C998        C  0.97985816  0.75441948  0.41082427    -0.07270
C999        C  0.08807065  0.86094912  0.46998472    -0.06830
N1000       N  0.02694668  0.77107327  0.56346201    -0.26360
N1001       N  0.03148181  0.86011061  0.41724769    -0.47120
H1002       H  0.09675057  0.75117555  0.44360614     0.06530
C1003       C  0.91995954  0.75469474  0.52769008    -0.07240
Cl1004     Cl  0.00846256  0.80320167  0.49935681    -0.50250
C1005       C  0.91644979  0.87540421  0.50095291     0.42280
H1006       H  0.06216903  0.75558578  0.59434864     0.06500
N1007       N  0.91945584  0.75536284  0.47580112    -0.46960
C1008       C  0.88957691  0.99057712  0.40629384     0.42130
N1009       N  0.85242808  0.97674123  0.43571444     0.01020
C1010       C  0.76848637  0.07810742  0.52741308    -0.06850
H1011       H  0.88022900  0.07652825  0.54989589     0.06520
C1012       C  0.87775437  0.96423527  0.57946865    -0.07200
Co1013     Co  0.81792493  0.03078249  0.46084383     0.74180
N1014       N  0.85171245  0.05397144  0.51591309    -0.26380
Co1015     Co  0.81898836  0.02944331  0.54084449     0.74070
C1016       C  0.89199279  0.99222114  0.59117636     0.42240
N1017       N  0.85462852  0.92723641  0.51339398     0.00640
N1018       N  0.85360483  0.00488901  0.56312787     0.00750
N1019       N  0.76852302  0.07819128  0.47550506    -0.47230
H1020       H  0.87910991  0.04222787  0.41362083     0.06500
N1021       N  0.85142795  0.05454963  0.48546351     0.01030
N1022       N  0.78676963  0.00360523  0.56606539     0.00770
C1023       C  0.76190163  0.98831606  0.60687142     0.42380
N1024       N  0.85412782  0.92780409  0.48297943    -0.25840
C1025       C  0.76871776  0.01559747  0.41181149    -0.06760
N1026       N  0.87467115  0.96575166  0.41774307    -0.46940
N1027       N  0.77192475  0.01346932  0.59101851    -0.47170
C1028       C  0.75915695  0.98754812  0.39533304     0.42150
N1029       N  0.78438975  0.05441020  0.48640974     0.01020
N1030       N  0.78785997  0.92434407  0.48439180    -0.25860
N1031       N  0.85176649  0.00720697  0.43637971    -0.26350
N1032       N  0.78758938  0.92462966  0.51486868     0.00660
H1033       H  0.77191111  0.89127991  0.45123490     0.06550
H1034       H  0.77333168  0.93738186  0.59483624     0.06580
N1035       N  0.78523350  0.05420796  0.51691231    -0.26400
N1036       N  0.85419976  0.97443474  0.56227861    -0.26010
N1037       N  0.78541869  0.97515971  0.43594007     0.01020
C1038       C  0.88897778  0.08376871  0.49796637     0.42420
C1039       C  0.87745942  0.91062043  0.47211588    -0.07260
N1040       N  0.78787159  0.97315826  0.56482175    -0.26010
H1041       H  0.88347969  0.94028881  0.58394779     0.06570
N1042       N  0.87331604  0.07237279  0.47368480    -0.47230
H1043       H  0.88234681  0.90594628  0.44805170     0.06560
C1044       C  0.76148136  0.88375978  0.50294781     0.42260
C1045       C  0.87445171  0.01812345  0.41834399    -0.06760
Co1046     Co  0.81964930  0.95081892  0.45945916     0.73820
N1047       N  0.87735235  0.91003804  0.52447608    -0.46950
C1048       C  0.75780752  0.09464595  0.49979008     0.42520
N1049       N  0.77025637  0.96369431  0.41214989    -0.46940
Co1050     Co  0.82079587  0.94962908  0.53898375     0.73890
C1051       C  0.77226865  0.96152170  0.58874300    -0.07270
C1052       C  0.87472791  0.07188282  0.52599768    -0.06830
N1053       N  0.78534797  0.00568447  0.43594779    -0.26360
N1054       N  0.87580307  0.01659424  0.58045110    -0.47120
H1055       H  0.76874774  0.08609242  0.55107371     0.06530
C1056       C  0.77181581  0.89968616  0.47474379    -0.07240
Cl1057     Cl  0.81863096  0.99020376  0.50003408    -0.50250
C1058       C  0.89275579  0.89918067  0.49968237     0.42280
H1059       H  0.76842021  0.03928467  0.40380342     0.06500
N1060       N  0.77247308  0.90081657  0.52663763    -0.46960
C1061       C  0.12431973  0.89959323  0.49834837     0.42130
N1062       N  0.16154130  0.92842637  0.48394604     0.01020
C1063       C  0.24442689  0.02431091  0.58142691    -0.06850
H1064       H  0.13192641  0.04581809  0.57936457     0.06520
C1065       C  0.13705628  0.07291569  0.46597268    -0.07200
Co1066     Co  0.19536947  0.95546952  0.53756501     0.74180
N1067       N  0.16077773  0.01108081  0.55790932    -0.26380
Co1068     Co  0.19407647  0.03482592  0.53285049     0.74070
C1069       C  0.12231792  0.08537002  0.49359629     0.42240
N1070       N  0.16089108  0.00452364  0.43139733     0.00640
N1071       N  0.16008692  0.05668588  0.50718735     0.00750
N1072       N  0.24331248  0.97253651  0.58605785    -0.47230
H1073       H  0.13414960  0.90840436  0.54980253     0.06500
N1074       N  0.16125291  0.98067297  0.55963088     0.01030
N1075       N  0.22698412  0.05861656  0.50717291     0.00770
C1076       C  0.25183763  0.09972251  0.49352157     0.42380
N1077       N  0.16103410  0.97406791  0.43306123    -0.25840
C1078       C  0.24660606  0.90813450  0.52631038    -0.06760
N1079       N  0.13947244  0.91025638  0.47334484    -0.46940
N1080       N  0.24153382  0.08313861  0.51785706    -0.47170
C1081       C  0.25477747  0.88759836  0.50060355     0.42150
N1082       N  0.22802202  0.98180064  0.56122852     0.01020
N1083       N  0.22730874  0.97426206  0.43108064    -0.25860
N1084       N  0.16197072  0.92999126  0.51435527    -0.26350
N1085       N  0.22795190  0.00480069  0.43000267     0.00660
H1086       H  0.24121494  0.93935462  0.39925759     0.06550
H1087       H  0.24194484  0.08992494  0.44216634     0.06580
N1088       N  0.22746887  0.01216697  0.55877189    -0.26400
N1089       N  0.16022594  0.05537443  0.47677348    -0.26010
N1090       N  0.22813964  0.92670293  0.48377801     0.01020
C1091       C  0.12342825  0.99404634  0.58825590     0.42420
C1092       C  0.13789051  0.96308972  0.41581409    -0.07260
N1093       N  0.22663020  0.05777764  0.47670866    -0.26010
H1094       H  0.13188517  0.07714132  0.44190390     0.06570
N1095       N  0.13937700  0.96943686  0.57778906    -0.47230
H1096       H  0.13269741  0.93895829  0.41196355     0.06560
C1097       C  0.25288164  0.99029863  0.38891060     0.42260
C1098       C  0.13915653  0.91234977  0.52562655    -0.06760
Co1099     Co  0.19480226  0.95051356  0.45769775     0.73820
N1100       N  0.13860410  0.01541114  0.41355592    -0.46950
C1101       C  0.25440784  0.99798756  0.60041782     0.42520
N1102       N  0.24289109  0.90125508  0.47497709    -0.46940
Co1103     Co  0.19429161  0.03078947  0.45336898     0.73890
C1104       C  0.24224635  0.08236147  0.46597864    -0.07270
C1105       C  0.13753894  0.02175724  0.57541838    -0.06830
N1106       N  0.22882464  0.93016925  0.51404463    -0.26360
N1107       N  0.13787749  0.07461086  0.51826339    -0.47120
H1108       H  0.24503860  0.04871660  0.58669535     0.06530
C1109       C  0.24267875  0.96313998  0.40655150    -0.07240
Cl1110     Cl  0.19533319  0.99287016  0.49527520    -0.50250
C1111       C  0.12310649  0.99058823  0.40319478     0.42280
H1112       H  0.24905306  0.90480408  0.55082330     0.06500
N1113       N  0.24274836  0.01502340  0.40526103    -0.46960
C1114       C  0.91276679  0.10746266  0.49590532     0.42130
N1115       N  0.94151274  0.14525812  0.50885004     0.01020
C1116       C  0.03249294  0.23047561  0.40863515    -0.06850
H1117       H  0.05764345  0.11813682  0.41110576     0.06520
C1118       C  0.08628386  0.12373246  0.52304146    -0.07200
Co1119     Co  0.96590522  0.17913995  0.45422509     0.74180
N1120       N  0.02245836  0.14634779  0.43271651    -0.26380
Co1121     Co  0.04588020  0.18033545  0.45700511     0.74070
C1122       C  0.09845498  0.10919258  0.49524382     0.42240
N1123       N  0.01881108  0.14609707  0.55922537     0.00640
N1124       N  0.06922247  0.14675193  0.48212188     0.00750
N1125       N  0.98077964  0.22747006  0.40506703    -0.47230
H1126       H  0.91997049  0.11687661  0.44405622     0.06500
N1127       N  0.99203400  0.14580602  0.43176648     0.01030
N1128       N  0.06949851  0.21381989  0.48229975     0.00770
C1129       C  0.11001390  0.23967777  0.49578077     0.42380
N1130       N  0.98838862  0.14582181  0.55831863    -0.25840
C1131       C  0.91408061  0.22682360  0.46817339    -0.06760
N1132       N  0.92388776  0.12308311  0.52033963    -0.46940
N1133       N  0.09368073  0.22902519  0.47149331    -0.47170
C1134       C  0.89750959  0.23696655  0.49610990     0.42150
N1135       N  0.99094120  0.21263215  0.42985689     0.01020
N1136       N  0.98739361  0.21257894  0.55953928    -0.25860
N1137       N  0.94223577  0.14524701  0.47840554    -0.26350
N1138       N  0.01780987  0.21278970  0.56139276     0.00660
H1139       H  0.95151228  0.22989861  0.58876811     0.06550
H1140       H  0.10030113  0.22935678  0.54716986     0.06580
N1141       N  0.02137007  0.21314203  0.43168720    -0.26400
N1142       N  0.06838062  0.14674819  0.51256057    -0.26010
N1143       N  0.93930432  0.21238573  0.50877667     0.01020
C1144       C  0.00611164  0.10791359  0.40353670     0.42420
C1145       C  0.97816014  0.12257681  0.57604268    -0.07260
N1146       N  0.06888002  0.21329909  0.51277746    -0.26010
H1147       H  0.09081341  0.11845453  0.54703682     0.06570
N1148       N  0.98122250  0.12321576  0.41434289    -0.47230
H1149       H  0.95423209  0.11708272  0.58064125     0.06560
C1150       C  0.00241612  0.23859854  0.60149350     0.42260
C1151       C  0.92464170  0.12207226  0.46802065    -0.06760
Co1152     Co  0.96391960  0.17932180  0.53400767     0.73820
N1153       N  0.03044859  0.12412716  0.57702347    -0.46950
C1154       C  0.00557252  0.23948792  0.39017902     0.42520
N1155       N  0.91495365  0.22707075  0.52004520    -0.46940
Co1156     Co  0.04365999  0.18006449  0.53676737     0.73890
C1157       C  0.09286681  0.22961664  0.52335873    -0.07270
C1158       C  0.03352636  0.12316408  0.41538121    -0.06830
N1159       N  0.93920776  0.21158402  0.47827757    -0.26360
N1160       N  0.08720889  0.12471643  0.47071861    -0.47120
H1161       H  0.05669676  0.23184200  0.40259241     0.06530
C1162       C  0.97576652  0.22923835  0.58283788    -0.07240
Cl1163     Cl  0.00481876  0.18019801  0.49550437    -0.50250
C1164       C  0.00613748  0.10829091  0.58809920     0.42280
H1165       H  0.90580106  0.22587527  0.44466859     0.06500
N1166       N  0.02754188  0.22748399  0.58639487    -0.46960
C1167       C  0.00780764  0.89879949  0.38221781     0.42130
N1168       N  0.99367850  0.92654705  0.34401088     0.01020
C1169       C  0.09300654  0.01903184  0.25877015    -0.06850
H1170       H  0.09070654  0.04353317  0.37004368     0.06520
C1171       C  0.97727627  0.07078552  0.36623888    -0.07200
Co1172     Co  0.04726488  0.95210438  0.30932833     0.74180
N1173       N  0.06881023  0.00852311  0.34220098    -0.26380
Co1174     Co  0.04376926  0.03218361  0.30889718     0.74070
C1175       C  0.00485845  0.08361114  0.38032394     0.42240
N1176       N  0.94195610  0.00282214  0.34451416     0.00640
N1177       N  0.01841991  0.05462308  0.34283440     0.00750
N1178       N  0.09424570  0.96706397  0.25940191    -0.47230
H1179       H  0.05932855  0.90694950  0.37204275     0.06500
N1180       N  0.07014048  0.97806131  0.34241496     0.01030
N1181       N  0.01741867  0.05599829  0.27602855     0.00770
C1182       C  0.00117419  0.09453395  0.24843142     0.42380
N1183       N  0.94322114  0.97237442  0.34452115    -0.25840
C1184       C  0.03392105  0.90093305  0.26167072    -0.06760
N1185       N  0.98291194  0.90914138  0.36673927    -0.46940
N1186       N  0.02664335  0.08059645  0.26022530    -0.47170
C1187       C  0.00644757  0.88370519  0.25193115     0.42150
N1188       N  0.07034878  0.97766987  0.27532250     0.01020
N1189       N  0.94043095  0.97216734  0.27812415    -0.25860
N1190       N  0.02409167  0.92790829  0.34358326    -0.26350
N1191       N  0.93988717  0.00266275  0.27749931     0.00660
H1192       H  0.90789354  0.93799275  0.26303707     0.06550
H1193       H  0.95056904  0.08104802  0.25760640     0.06580
N1194       N  0.06941629  0.00820382  0.27572258    -0.26400
N1195       N  0.98802219  0.05308966  0.34321534    -0.26010
N1196       N  0.99271216  0.92487039  0.27698114     0.01020
C1197       C  0.09915304  0.99185918  0.37964500     0.42420
C1198       C  0.92580793  0.96159049  0.36775580    -0.07260
N1199       N  0.98705992  0.05352305  0.27642568    -0.26010
H1200       H  0.95322121  0.07490214  0.37168657     0.06570
N1201       N  0.08828926  0.96706485  0.36441244    -0.47230
H1202       H  0.92157833  0.93750357  0.37296364     0.06560
C1203       C  0.89870484  0.98943072  0.25273331     0.42260
C1204       C  0.03519925  0.91090134  0.36694855    -0.06760
Co1205     Co  0.96737580  0.94866790  0.31056788     0.73820
N1206       N  0.92406522  0.01394751  0.36674769    -0.46950
C1207       C  0.10996729  0.99160019  0.24803374     0.42520
N1208       N  0.98204729  0.90034134  0.26234678    -0.46940
Co1209     Co  0.96403387  0.02817837  0.31016581     0.73890
C1210       C  0.97495586  0.07571460  0.25867295    -0.07270
C1211       C  0.08655177  0.01941938  0.36499352    -0.06830
N1212       N  0.02319908  0.92554080  0.27726392    -0.26360
N1213       N  0.02953172  0.07290661  0.36458931    -0.47120
H1214       H  0.10023306  0.04291884  0.25877385     0.06530
C1215       C  0.91578029  0.96169237  0.26256134    -0.07240
Cl1216     Cl  0.00560616  0.99027386  0.30928973    -0.50250
C1217       C  0.91339031  0.98921865  0.38241727     0.42280
H1218       H  0.05772133  0.89339222  0.26221120     0.06500
N1219       N  0.91546726  0.01361374  0.26286608    -0.46960
C1220       C  0.00740459  0.89972745  0.61513722     0.42130
N1221       N  0.02113236  0.92929530  0.65200893     0.01020
C1222       C  0.92151001  0.02390113  0.73523296    -0.06850
H1223       H  0.92365556  0.04588479  0.62348150     0.06520
C1224       C  0.03613626  0.07329670  0.62693797    -0.07200
Co1225     Co  0.96721255  0.95566812  0.68622093     0.74180
N1226       N  0.94559638  0.01132364  0.65212322    -0.26380
Co1227     Co  0.97028814  0.03543451  0.68512737     0.74070
C1228       C  0.00821599  0.08508109  0.61234718     0.42240
N1229       N  0.07202876  0.00615339  0.65062068     0.00640
N1230       N  0.99537803  0.05733253  0.65093419     0.00750
N1231       N  0.91935990  0.97195995  0.73539423    -0.47230
H1232       H  0.95575993  0.90788175  0.62512807     0.06500
N1233       N  0.94451767  0.98087523  0.65243356     0.01030
N1234       N  0.99598593  0.05974812  0.71771211     0.00770
C1235       C  0.01036877  0.09981099  0.74384940     0.42380
N1236       N  0.07099847  0.97568794  0.65089778    -0.25840
C1237       C  0.97997425  0.90742544  0.73656189    -0.06760
N1238       N  0.03212503  0.91097359  0.63011294    -0.46940
N1239       N  0.98569206  0.08432012  0.73279535    -0.47170
C1240       C  0.00680915  0.88879998  0.74575598     0.42150
N1241       N  0.94355516  0.98183013  0.71946561     0.01020
N1242       N  0.07318353  0.97600766  0.71736904    -0.25860
N1243       N  0.99070421  0.93045475  0.65251443    -0.26350
N1244       N  0.07417266  0.00651173  0.71745478     0.00660
H1245       H  0.10408275  0.94110428  0.73407848     0.06550
H1246       H  0.06161509  0.08831632  0.73451207     0.06580
N1247       N  0.94484940  0.01227777  0.71856948    -0.26400
N1248       N  0.02579254  0.05624072  0.65064487    -0.26010
N1249       N  0.02172515  0.92821461  0.71876066     0.01020
C1250       C  0.91578918  0.99405719  0.61473345     0.42420
C1251       C  0.08819786  0.96488516  0.62749146    -0.07260
N1252       N  0.02642522  0.05828491  0.71731778    -0.26010
H1253       H  0.06008684  0.07742461  0.62114800     0.06570
N1254       N  0.92670062  0.96950575  0.63048061    -0.47230
H1255       H  0.09245629  0.94079687  0.62226407     0.06560
C1256       C  0.11477248  0.99251588  0.74311276     0.42260
C1257       C  0.97983551  0.91234708  0.62991440    -0.06760
Co1258     Co  0.04698753  0.95200072  0.68506278     0.73820
N1259       N  0.08938987  0.01725377  0.62802499    -0.46950
C1260       C  0.90393967  0.99704360  0.74625677     0.42520
N1261       N  0.03174539  0.90346006  0.73381900    -0.46940
Co1262     Co  0.04992781  0.03200361  0.68434308     0.73890
C1263       C  0.03752754  0.08185480  0.73392572    -0.07270
C1264       C  0.92796645  0.02186224  0.62900229    -0.06830
N1265       N  0.99130795  0.93032322  0.71920735    -0.26360
N1266       N  0.98383983  0.07456713  0.62849522    -0.47120
H1267       H  0.91519540  0.04803740  0.73478763     0.06530
C1268       C  0.09718984  0.96513748  0.73361742    -0.07240
Cl1269     Cl  0.00861827  0.99376630  0.68564968    -0.50250
C1270       C  0.10004539  0.99253311  0.61241786     0.42280
H1271       H  0.95572570  0.90173032  0.73780003     0.06500
N1272       N  0.09869920  0.01701629  0.73216318    -0.46960
C1273       C  0.00056775  0.24993622  0.23533669     0.00240
C1274       C  0.00121478  0.22754345  0.25740245     0.00240
C1275       C  0.74349455  0.98752667  0.23965086     0.00240
C1276       C  0.76556646  0.98785100  0.26197938     0.00240
C1277       C  0.00028144  0.75025690  0.26095142     0.00240
C1278       C  0.00279997  0.72862314  0.23820458     0.00240
C1279       C  0.26521391  0.99061520  0.23350886     0.00240
C1280       C  0.24252696  0.99105617  0.25534003     0.00240
C1281       C  0.26544206  0.25511510  0.49754814     0.00240
C1282       C  0.24319075  0.23300567  0.49637690     0.00240
C1283       C  0.74262379  0.25039214  0.50689348     0.00240
C1284       C  0.76428745  0.22736728  0.50695930     0.00240
C1285       C  0.24836486  0.75420220  0.49453725     0.00240
C1286       C  0.27026750  0.73169090  0.49197619     0.00240
C1287       C  0.27018754  0.00082086  0.75589017     0.00240
C1288       C  0.24773357  0.99971806  0.73388489     0.00240
C1289       C  0.23984896  0.24737544  0.99431129     0.00240
C1290       C  0.26214446  0.22528464  0.99773531     0.00240
C1291       C  0.26980187  0.75035438  0.99865008     0.00240
C1292       C  0.24794507  0.72758137  0.99639135     0.00240
C1293       C  0.50598942  0.72805268  0.25664639     0.00240
C1294       C  0.50737580  0.75074370  0.23485680     0.00240
C1295       C  0.49668190  0.25055742  0.26111898     0.00240
C1296       C  0.49497384  0.22844584  0.23870877     0.00240
C1297       C  0.50320727  0.25619025  0.73842438     0.00240
C1298       C  0.50350128  0.23388595  0.76068258     0.00240
C1299       C  0.99979326  0.25495865  0.75760650     0.00240
C1300       C  0.00203331  0.23291653  0.73517431     0.00240
C1301       C  0.76237914  0.25611780  0.00076898     0.00240
C1302       C  0.73989238  0.23416993  0.00005726     0.00240
C1303       C  0.26572672  0.48190396  0.25979091     0.00240
C1304       C  0.24373485  0.48139650  0.23735372     0.00240
C1305       C  0.74391527  0.49500391  0.25816676     0.00240
C1306       C  0.76585631  0.49523675  0.23545894     0.00240
C1307       C  0.26748069  0.49237848  0.73842153     0.00240
C1308       C  0.24478436  0.49112885  0.76030621     0.00240
C1309       C  0.00617994  0.73331846  0.76166016     0.00240
C1310       C  0.00697510  0.75534561  0.73920466     0.00240
C1311       C  0.74916214  0.99161207  0.76224090     0.00240
C1312       C  0.77119688  0.99234701  0.73981316     0.00240
C1313       C  0.77026026  0.73262218  0.00191816     0.00240
C1314       C  0.74789025  0.75472900  0.99949849     0.00240
C1315       C  0.74394323  0.50267681  0.73732366     0.00240
C1316       C  0.76583778  0.50353905  0.76005316     0.00240
C1317       C  0.74765957  0.72845648  0.50618127     0.00240
C1318       C  0.76988662  0.75061482  0.50778186     0.00240
C1319       C  0.50697262  0.73292485  0.73329066     0.00240
C1320       C  0.50914804  0.75472740  0.75593896     0.00240
C1321       C  0.85473680  0.96745436  0.75025493    -0.26640
C1322       C  0.86987127  0.99617204  0.75191656    -0.14710
C1323       C  0.85156344  0.02321360  0.75487552     0.35920
C1324       C  0.81931222  0.02131446  0.75214610    -0.26090
C1325       C  0.80468826  0.99286681  0.74753371    -0.15330
C1326       C  0.82246237  0.96563279  0.74810164     0.37000
N1327       N  0.80793630  0.93607145  0.74575395    -0.89580
H1328       H  0.86801126  0.94621318  0.74909670     0.18120
H1329       H  0.80574861  0.04236279  0.75290572     0.18110
N1330       N  0.86529902  0.05273407  0.76033636    -0.88610
H1331       H  0.81388716  0.92317305  0.76530414     0.35480
H1332       H  0.81699629  0.92477076  0.72639439     0.40580
H1333       H  0.85888000  0.06756128  0.74234288     0.40200
H1334       H  0.85613987  0.06160164  0.78088005     0.35090
C1335       C  0.03511653  0.15158700  0.73759502    -0.26640
C1336       C  0.00966769  0.13410813  0.74777306    -0.14710
C1337       C  0.98294178  0.15012983  0.75815866     0.35920
C1338       C  0.98155342  0.18248195  0.75604473    -0.26090
C1339       C  0.00592575  0.19941398  0.74296727    -0.15330
C1340       C  0.03348475  0.18391223  0.73502900     0.37000
N1341       N  0.05954635  0.20105672  0.72365122    -0.89580
H1342       H  0.05600674  0.14014425  0.73000378     0.18120
H1343       H  0.96072459  0.19426657  0.76343809     0.18110
N1344       N  0.95669291  0.13430282  0.77063083    -0.88610
H1345       H  0.07799997  0.18627041  0.71852234     0.35480
H1346       H  0.06699755  0.21556017  0.74140746     0.40580
H1347       H  0.96414059  0.11982847  0.78849616     0.40200
H1348       H  0.94658232  0.12096020  0.75334448     0.35090
C1349       C  0.16687240  0.96682101  0.74206978    -0.26640
C1350       C  0.14902871  0.99369272  0.74714604    -0.14710
C1351       C  0.16479225  0.02194800  0.75228009     0.35920
C1352       C  0.19693288  0.02312736  0.74938738    -0.26090
C1353       C  0.21436017  0.99675506  0.74216475    -0.15330
C1354       C  0.19919844  0.96822623  0.73941100     0.37000
N1355       N  0.21652406  0.94073601  0.73289592    -0.89580
H1356       H  0.15590093  0.94468793  0.73862504     0.18120
H1357       H  0.20790771  0.04538340  0.75099694     0.18110
N1358       N  0.14901325  0.05011025  0.75988439    -0.88610
H1359       H  0.20837041  0.93143205  0.71219615     0.35480
H1360       H  0.21220411  0.92477641  0.75053402     0.40580
H1361       H  0.13423638  0.04600394  0.77857910     0.40200
H1362       H  0.13631746  0.05770269  0.74086198     0.35090
C1363       C  0.03261724  0.80481188  0.75497307    -0.26640
C1364       C  0.00558959  0.78904455  0.74659378    -0.14710
C1365       C  0.97809447  0.80623114  0.74218481     0.35920
C1366       C  0.97873026  0.83842559  0.74429216    -0.26090
C1367       C  0.00621887  0.85456370  0.75017219    -0.15330
C1368       C  0.03331995  0.83739055  0.75652657     0.37000
N1369       N  0.06165572  0.85305338  0.76358077    -0.89580
H1370       H  0.05351633  0.79183008  0.75940861     0.18120
H1371       H  0.95739439  0.85066404  0.73998978     0.18110
N1372       N  0.94889921  0.79197188  0.73573904    -0.88610
H1373       H  0.07952393  0.83713784  0.76713627     0.35480
H1374       H  0.05842326  0.86473143  0.78447417     0.40580
H1375       H  0.94945832  0.76822192  0.73969538     0.40200
H1376       H  0.94386564  0.79574114  0.71243203     0.35090
C1377       C  0.19391977  0.01502628  0.23494236    -0.26640
C1378       C  0.20927228  0.98889967  0.24663233    -0.14710
C1379       C  0.19205986  0.96186928  0.25298229     0.35920
C1380       C  0.15980865  0.96287608  0.25108398    -0.26090
C1381       C  0.14401064  0.99008311  0.24272752    -0.15330
C1382       C  0.16148703  0.01589104  0.23302675     0.37000
N1383       N  0.14654148  0.04321900  0.22178749    -0.89580
H1384       H  0.20705830  0.03545488  0.22888453     0.18120
H1385       H  0.14705087  0.94237090  0.25763651     0.18110
N1386       N  0.20636418  0.93320879  0.26208860    -0.88610
H1387       H  0.15466873  0.04753022  0.19943163     0.35480
H1388       H  0.15315058  0.06173432  0.23577669     0.40580
H1389       H  0.23037096  0.93449354  0.26084960     0.40200
H1390       H  0.20011753  0.91650017  0.24584859     0.35090
C1391       C  0.97652728  0.83501432  0.25676435    -0.26640
C1392       C  0.00441810  0.84940926  0.24851705    -0.14710
C1393       C  0.02998947  0.83056647  0.24049261     0.35920
C1394       C  0.02763147  0.79813714  0.24329459    -0.26090
C1395       C  0.00020314  0.78408925  0.25351049    -0.15330
C1396       C  0.97410296  0.80294203  0.25945461     0.37000
N1397       N  0.94463443  0.79063700  0.26827478    -0.89580
H1398       H  0.95633722  0.84879520  0.26232148     0.18120
H1399       H  0.04759668  0.78374506  0.23848033     0.18110
N1400       N  0.05834507  0.84424490  0.23005036    -0.88610
H1401       H  0.94142555  0.79503108  0.29174642     0.35480
H1402       H  0.94376007  0.76679881  0.26502289     0.40580
H1403       H  0.05379985  0.85543033  0.20912168     0.40200
H1404       H  0.07486526  0.82718537  0.22537523     0.35090
C1405       C  0.81529930  0.01590230  0.26192293    -0.26640
C1406       C  0.79916744  0.98902133  0.25434418    -0.14710
C1407       C  0.81549910  0.96348129  0.24216610     0.35920
C1408       C  0.84799533  0.96475883  0.24001063    -0.26090
C1409       C  0.86441321  0.99116647  0.24934984    -0.15330
C1410       C  0.84749639  0.01764663  0.25894707     0.37000
N1411       N  0.86292235  0.04593587  0.26685989    -0.89580
H1412       H  0.80263188  0.03570972  0.27056225     0.18120
H1413       H  0.86060686  0.94467195  0.23190638     0.18110
N1414       N  0.79922204  0.93625761  0.23251628    -0.88610
H1415       H  0.84717963  0.06251577  0.27480630     0.35480
H1416       H  0.87249849  0.05486166  0.24653077     0.40580
H1417       H  0.78913257  0.92620566  0.25199073     0.40200
H1418       H  0.81459698  0.91988341  0.22351323     0.35090
C1419       C  0.97428792  0.14459294  0.25751875    -0.26640
C1420       C  0.99952381  0.12873913  0.24433286    -0.14710
C1421       C  0.02418870  0.14635193  0.23172611     0.35920
C1422       C  0.02387882  0.17877424  0.23473755    -0.26090
C1423       C  0.99947453  0.19400892  0.24985105    -0.15330
C1424       C  0.97419546  0.17673523  0.26048544     0.37000
N1425       N  0.94844208  0.19185199  0.27490205    -0.89580
H1426       H  0.95500893  0.13216445  0.26738374     0.18120
H1427       H  0.04326847  0.19204939  0.22612462     0.18110
N1428       N  0.04976838  0.13234242  0.21575614    -0.88610
H1429       H  0.94597642  0.18293567  0.29723631     0.35480
H1430       H  0.92855836  0.18638868  0.26243280     0.40580
H1431       H  0.04630421  0.10877293  0.21210286     0.40200
H1432       H  0.06933595  0.13478466  0.22961670     0.35090
C1433       C  0.97502520  0.23278077  0.65197755    -0.26640
C1434       C  0.00161025  0.24226548  0.63586031    -0.14710
C1435       C  0.02737290  0.25250605  0.65312379     0.35920
C1436       C  0.02621802  0.25174121  0.68576764    -0.26090
C1437       C  0.00025117  0.24021049  0.70148163    -0.15330
C1438       C  0.97390487  0.23174061  0.68420586     0.37000
N1439       N  0.94555225  0.22177217  0.69848185    -0.89580
H1440       H  0.95482645  0.22495224  0.63971597     0.18120
H1441       H  0.04624442  0.25864551  0.69898154     0.18110
N1442       N  0.05473029  0.26325241  0.63765435    -0.88610
H1443       H  0.92794670  0.23640784  0.69068791     0.35480
H1444       H  0.94604334  0.22497083  0.72230599     0.40580
H1445       H  0.06569092  0.24402583  0.62792389     0.40200
H1446       H  0.07034570  0.27228074  0.65363305     0.35090
C1447       C  0.84967647  0.23054638  0.52735908    -0.26640
C1448       C  0.86324294  0.24002811  0.49936308    -0.14710
C1449       C  0.84365322  0.24868119  0.47466889     0.35920
C1450       C  0.81130094  0.24570788  0.47801594    -0.26090
C1451       C  0.79816943  0.23405124  0.50538843    -0.15330
C1452       C  0.81784393  0.22664506  0.53031488     0.37000
N1453       N  0.80640071  0.21414913  0.55876055    -0.89580
H1454       H  0.86399461  0.22403636  0.54680016     0.18120
H1455       H  0.79629644  0.25147471  0.45885573     0.18110
N1456       N  0.85653605  0.25997421  0.44621802    -0.88610
H1457       H  0.79757463  0.19217798  0.55447123     0.35480
H1458       H  0.78880073  0.22837141  0.56724847     0.40580
H1459       H  0.86769612  0.28080740  0.45104070     0.40200
H1460       H  0.83904119  0.26507730  0.43039813     0.35090
C1461       C  0.16052989  0.24780504  0.52249439    -0.26640
C1462       C  0.14427548  0.24411140  0.49457949    -0.14710
C1463       C  0.16168124  0.24111884  0.46679897     0.35920
C1464       C  0.19389143  0.23941584  0.46802628    -0.26090
C1465       C  0.20971068  0.24088975  0.49609684    -0.15330
C1466       C  0.19296597  0.24578266  0.52360415     0.37000
N1467       N  0.20873625  0.24680655  0.55274313    -0.89580
H1468       H  0.14797677  0.25100580  0.54388398     0.18120
H1469       H  0.20665623  0.23555646  0.44681705     0.18110
N1470       N  0.14768329  0.23871615  0.43696509    -0.88610
H1471       H  0.19293845  0.24889745  0.57093620     0.35480
H1472       H  0.22205907  0.26684691  0.55304773     0.40580
H1473       H  0.13268185  0.25742865  0.43378896     0.40200
H1474       H  0.13563974  0.21789140  0.43549189     0.35090
C1475       C  0.03136403  0.23046076  0.33942505    -0.26640
C1476       C  0.00605743  0.24280858  0.35587346    -0.14710
C1477       C  0.98016062  0.25363396  0.33893369     0.35920
C1478       C  0.97933516  0.24956101  0.30673523    -0.26090
C1479       C  0.00388712  0.23535970  0.29088349    -0.15330
C1480       C  0.03053159  0.22668536  0.30727784     0.37000
N1481       N  0.05635671  0.21314743  0.29122962    -0.89580
H1482       H  0.05144604  0.22204166  0.35160618     0.18120
H1483       H  0.95898795  0.25676472  0.29412966     0.18110
N1484       N  0.95438808  0.26885710  0.35342084    -0.88610
H1485       H  0.07409463  0.20760199  0.30662156     0.35480
H1486       H  0.06518182  0.22987301  0.27617375     0.40580
H1487       H  0.95873513  0.27392486  0.37655223     0.40200
H1488       H  0.93553932  0.25383770  0.35257933     0.35090
C1489       C  0.25005535  0.02652309  0.65044945    -0.26640
C1490       C  0.25839813  0.99926856  0.63468292    -0.14710
C1491       C  0.26680969  0.97295683  0.65227887     0.35920
C1492       C  0.26498332  0.97413071  0.68478213    -0.26090
C1493       C  0.25497444  0.00092183  0.70017412    -0.15330
C1494       C  0.24777604  0.02747205  0.68275757     0.37000
N1495       N  0.23644700  0.05487540  0.69779042    -0.89580
H1496       H  0.24347192  0.04697776  0.63773923     0.18120
H1497       H  0.26961031  0.95340718  0.69799105     0.18110
N1498       N  0.27656537  0.94492904  0.63728314    -0.88610
H1499       H  0.23117321  0.07209334  0.68165699     0.35480
H1500       H  0.25414730  0.06358020  0.71148779     0.40580
H1501       H  0.25690523  0.93437112  0.62824006     0.40200
H1502       H  0.28545778  0.92933198  0.65347990     0.35090
C1503       C  0.25963331  0.15124507  0.46788351    -0.26640
C1504       C  0.25538252  0.13402935  0.49518969    -0.14710
C1505       C  0.25054745  0.15023710  0.52322819     0.35920
C1506       C  0.24791878  0.18249777  0.52301717    -0.26090
C1507       C  0.25080985  0.19943561  0.49564218    -0.15330
C1508       C  0.25720526  0.18377137  0.46779146     0.37000
N1509       N  0.25941293  0.20071511  0.43930098    -0.89580
H1510       H  0.26370229  0.13933660  0.44628199     0.18120
H1511       H  0.24274053  0.19435506  0.54444285     0.18110
N1512       N  0.24708953  0.13416338  0.55198831    -0.88610
H1513       H  0.26276549  0.18564126  0.42072510     0.35480
H1514       H  0.27913818  0.21444785  0.44041075     0.40580
H1515       H  0.22540045  0.13966329  0.56118898     0.40200
H1516       H  0.26390919  0.14227980  0.56721234     0.35090
C1517       C  0.27068883  0.83780012  0.47613335    -0.26640
C1518       C  0.25864770  0.85318741  0.50224896    -0.14710
C1519       C  0.24660500  0.83477073  0.52680626     0.35920
C1520       C  0.24571314  0.80274208  0.52397577    -0.26090
C1521       C  0.25613233  0.78768161  0.49743441    -0.15330
C1522       C  0.26949144  0.80525292  0.47338561     0.37000
N1523       N  0.28094689  0.79024332  0.44603569    -0.89580
H1524       H  0.27988128  0.85136140  0.45717256     0.18120
H1525       H  0.23539724  0.78945639  0.54250796     0.18110
N1526       N  0.23347145  0.84721055  0.55447756    -0.88610
H1527       H  0.29016167  0.80646744  0.43066966     0.35480
H1528       H  0.26231548  0.77994147  0.43481711     0.40580
H1529       H  0.21522809  0.86209074  0.54902909     0.40200
H1530       H  0.25073334  0.85812066  0.56717399     0.35090
C1531       C  0.26624933  0.96920680  0.30395191    -0.26640
C1532       C  0.24931901  0.99271850  0.28919521    -0.14710
C1533       C  0.23712086  0.01709571  0.30710744     0.35920
C1534       C  0.23996496  0.01623082  0.33935215    -0.26090
C1535       C  0.25496148  0.99162881  0.35450222    -0.15330
C1536       C  0.26936420  0.96848524  0.33623201     0.37000
N1537       N  0.28784401  0.94440169  0.34947288    -0.89580
H1538       H  0.27635111  0.95070547  0.29040848     0.18120
H1539       H  0.22936763  0.03457723  0.35271994     0.18110
N1540       N  0.22155120  0.04259175  0.29249111    -0.88610
H1541       H  0.27382585  0.92953993  0.36218698     0.35480
H1542       H  0.30418670  0.95438767  0.36408387     0.40580
H1543       H  0.23773110  0.05422455  0.27883230     0.40200
H1544       H  0.21362796  0.05848152  0.30889985     0.35090
C1545       C  0.74301864  0.14388484  0.52584120    -0.26640
C1546       C  0.75289043  0.12882575  0.49874288    -0.14710
C1547       C  0.76153121  0.14730283  0.47294262     0.35920
C1548       C  0.76274106  0.17943407  0.47590075    -0.26090
C1549       C  0.75560089  0.19411700  0.50383455    -0.15330
C1550       C  0.74415812  0.17629947  0.52866125     0.37000
N1551       N  0.73595144  0.19078296  0.55736655    -0.89580
H1552       H  0.73547150  0.13025266  0.54544364     0.18120
H1553       H  0.77090186  0.19306854  0.45650726     0.18110
N1554       N  0.77072549  0.13448072  0.44383573    -0.88610
H1555       H  0.73294496  0.17414625  0.57465134     0.35480
H1556       H  0.71431149  0.20092171  0.55429105     0.40580
H1557       H  0.75305490  0.12029490  0.43565018     0.40200
H1558       H  0.79104999  0.12173571  0.44670231     0.35090
C1559       C  0.74853862  0.01311553  0.34465915    -0.26640
C1560       C  0.75506326  0.98576119  0.36111284    -0.14710
C1561       C  0.76134478  0.95842378  0.34395990     0.35920
C1562       C  0.76294912  0.95972545  0.31178801    -0.26090
C1563       C  0.75781648  0.98725647  0.29556949    -0.15330
C1564       C  0.75032008  0.01429744  0.31218641     0.37000
N1565       N  0.74674675  0.04329325  0.29636212    -0.89580
H1566       H  0.74320140  0.03412435  0.35714152     0.18120
H1567       H  0.76944160  0.93900369  0.29938139     0.18110
N1568       N  0.76742581  0.92908810  0.35813941    -0.88610
H1569       H  0.74462302  0.06142344  0.31218148     0.35480
H1570       H  0.72585644  0.04254954  0.28456083     0.40580
H1571       H  0.74909991  0.92350838  0.37287902     0.40200
H1572       H  0.78811355  0.93020745  0.37042508     0.35090
C1573       C  0.75749910  0.01767481  0.65652407    -0.26640
C1574       C  0.75757649  0.98893692  0.64119467    -0.14710
C1575       C  0.75747139  0.96164916  0.65936105     0.35920
C1576       C  0.76208205  0.96375037  0.69131248    -0.26090
C1577       C  0.76326340  0.99227450  0.70637631    -0.15330
C1578       C  0.75967578  0.01966885  0.68885445     0.37000
N1579       N  0.75859941  0.04976786  0.70283764    -0.89580
H1580       H  0.75651360  0.03892438  0.64327213     0.18120
H1581       H  0.76449090  0.94274052  0.70467150     0.18110
N1582       N  0.75283491  0.93182056  0.64566849    -0.88610
H1583       H  0.77876223  0.06145469  0.69654488     0.35480
H1584       H  0.75812244  0.04839218  0.72688992     0.40580
H1585       H  0.73049286  0.93158006  0.63658656     0.40200
H1586       H  0.75370361  0.91430551  0.66232555     0.35090
C1587       C  0.74794562  0.79878009  0.48345067    -0.26640
C1588       C  0.76215560  0.78432596  0.50880048    -0.14710
C1589       C  0.77203134  0.80255028  0.53379771     0.35920
C1590       C  0.76930462  0.83485429  0.53215894    -0.26090
C1591       C  0.75694875  0.84967073  0.50595913    -0.15330
C1592       C  0.74453951  0.83108821  0.48204619     0.37000
N1593       N  0.72795584  0.84392491  0.45635498    -0.89580
H1594       H  0.74006369  0.78491818  0.46422332     0.18120
H1595       H  0.77841810  0.84851646  0.55096784     0.18110
N1596       N  0.78587669  0.78820612  0.56034894    -0.88610
H1597       H  0.74209819  0.84228923  0.43680807     0.35480
H1598       H  0.72239856  0.86713502  0.45994674     0.40580
H1599       H  0.76901371  0.77462082  0.57102797     0.40200
H1600       H  0.79250006  0.80482505  0.57652158     0.35090
C1601       C  0.16553935  0.73082432  0.51569772    -0.26640
C1602       C  0.14908435  0.74379081  0.49081364    -0.14710
C1603       C  0.16632274  0.75804797  0.46656774     0.35920
C1604       C  0.19836033  0.75936969  0.46823696    -0.26090
C1605       C  0.21459337  0.74727025  0.49329022    -0.15330
C1606       C  0.19807495  0.73258647  0.51736176     0.37000
N1607       N  0.21407927  0.72032430  0.54371135    -0.89580
H1608       H  0.15281776  0.72029811  0.53454817     0.18120
H1609       H  0.21077600  0.77105094  0.44989199     0.18110
N1610       N  0.15265330  0.77302128  0.44047286    -0.88610
H1611       H  0.19855656  0.71009372  0.55915664     0.35480
H1612       H  0.22432264  0.73869318  0.55542142     0.40580
H1613       H  0.14242735  0.75648216  0.42631853     0.40200
H1614       H  0.13702373  0.78994621  0.44783412     0.35090
C1615       C  0.03017615  0.75158750  0.30927780    -0.26640
C1616       C  0.00305403  0.74219652  0.29443650    -0.14710
C1617       C  0.97916322  0.72863204  0.31238447     0.35920
C1618       C  0.98203535  0.72778721  0.34472263    -0.26090
C1619       C  0.00836016  0.73928788  0.35969236    -0.15330
C1620       C  0.03351425  0.74960314  0.34143341     0.37000
N1621       N  0.06190750  0.75939265  0.35545548    -0.89580
H1622       H  0.04885618  0.76109607  0.29556253     0.18120
H1623       H  0.96300714  0.71884806  0.35833341     0.18110
N1624       N  0.95157223  0.71601698  0.29911712    -0.88610
H1625       H  0.07742719  0.76752483  0.33879260     0.35480
H1626       H  0.07218276  0.73983836  0.36532033     0.40580
H1627       H  0.95190236  0.71708788  0.27508481     0.40200
H1628       H  0.93290273  0.72940401  0.30665990     0.35090
C1629       C  0.03769951  0.74652643  0.65718663    -0.26640
C1630       C  0.01034066  0.74227009  0.64027993    -0.14710
C1631       C  0.98246350  0.73746610  0.65685129     0.35920
C1632       C  0.98241665  0.73930902  0.68934980    -0.26090
C1633       C  0.00923825  0.74689952  0.70574459    -0.15330
C1634       C  0.03758598  0.74870947  0.68948252     0.37000
N1635       N  0.06670155  0.75302269  0.70478885    -0.89580
H1636       H  0.05958780  0.74913271  0.64544254     0.18120
H1637       H  0.96098656  0.73593093  0.70172925     0.18110
N1638       N  0.95406728  0.73154171  0.64083081    -0.88610
H1639       H  0.08106497  0.73457956  0.69850370     0.35480
H1640       H  0.06431482  0.75116423  0.72866792     0.40580
H1641       H  0.94610339  0.75268745  0.63221084     0.40200
H1642       H  0.93707665  0.72406102  0.65632198     0.35090
C1643       C  0.81812974  0.75277034  0.47714766    -0.26640
C1644       C  0.80337931  0.74305990  0.50425612    -0.14710
C1645       C  0.82128658  0.73028860  0.52823869     0.35920
C1646       C  0.85362830  0.72913295  0.52535869    -0.26090
C1647       C  0.86870708  0.74096573  0.49909376    -0.15330
C1648       C  0.85027212  0.75209333  0.47423364     0.37000
N1649       N  0.86312205  0.76444358  0.44631539    -0.89580
H1650       H  0.80451614  0.76250308  0.45851146     0.18120
H1651       H  0.86707141  0.72015740  0.54445900     0.18110
N1652       N  0.80701994  0.71981677  0.55615517    -0.88610
H1653       H  0.87614856  0.78404576  0.45152550     0.35480
H1654       H  0.87699006  0.74759358  0.43588362     0.40580
H1655       H  0.81637732  0.73225288  0.57456230     0.40200
H1656       H  0.81291174  0.69655507  0.55923011     0.35090
C1657       C  0.73699146  0.14994043  0.02485590    -0.26640
C1658       C  0.75535146  0.13514298  0.00244603    -0.14710
C1659       C  0.77107660  0.15357172  0.98031154     0.35920
C1660       C  0.76615475  0.18577876  0.97993712    -0.26090
C1661       C  0.74693903  0.20025914  0.00185604    -0.15330
C1662       C  0.73264666  0.18197613  0.02469525     0.37000
N1663       N  0.71336951  0.19588981  0.04779395    -0.89580
H1664       H  0.72467826  0.13651473  0.04205258     0.18120
H1665       H  0.77696167  0.19944672  0.96196825     0.18110
N1666       N  0.79198082  0.14059249  0.95790785    -0.88610
H1667       H  0.72235829  0.19029862  0.06948668     0.35480
H1668       H  0.69134010  0.18619874  0.04613261     0.40580
H1669       H  0.79562105  0.11707261  0.96188509     0.40200
H1670       H  0.81348532  0.15100730  0.96118265     0.35090
C1671       C  0.77116227  0.83815055  0.98076943    -0.26640
C1672       C  0.75508078  0.85421009  0.00408519    -0.14710
C1673       C  0.73840251  0.83689885  0.02635133     0.35920
C1674       C  0.73869962  0.80463490  0.02525116    -0.26090
C1675       C  0.75398261  0.78861589  0.00165404    -0.15330
C1676       C  0.77049813  0.80554921  0.97919455     0.37000
N1677       N  0.78533959  0.78995673  0.95405137    -0.89580
H1678       H  0.78340291  0.85100211  0.96308377     0.18120
H1679       H  0.72543484  0.79192627  0.04231054     0.18110
N1680       N  0.71920682  0.85167122  0.04896438    -0.88610
H1681       H  0.80877214  0.79569876  0.95441423     0.35480
H1682       H  0.77598394  0.79838238  0.93344693     0.40580
H1683       H  0.72640083  0.84444490  0.07085878     0.40200
H1684       H  0.69647805  0.84424858  0.04575296     0.35090
C1685       C  0.75679186  0.96424747  0.84515883    -0.26640
C1686       C  0.76110286  0.99233014  0.86101978    -0.14710
C1687       C  0.76677319  0.01935445  0.84325476     0.35920
C1688       C  0.76507292  0.01808924  0.81091943    -0.26090
C1689       C  0.75776225  0.99050218  0.79558458    -0.15330
C1690       C  0.75515742  0.96294832  0.81291776     0.37000
N1691       N  0.74989825  0.93335279  0.79881359    -0.89580
H1692       H  0.75342938  0.94286711  0.85759459     0.18120
H1693       H  0.76783818  0.03922270  0.79774333     0.18110
N1694       N  0.77380321  0.04851821  0.85715797    -0.88610
H1695       H  0.76792482  0.91869937  0.80552179     0.35480
H1696       H  0.75155675  0.93476888  0.77486525     0.40580
H1697       H  0.79226525  0.04546129  0.87238003     0.40200
H1698       H  0.75452098  0.05649459  0.86931559     0.35090
C1699       C  0.76360963  0.01479818  0.15846311    -0.26640
C1700       C  0.75405583  0.98931174  0.14078341    -0.14710
C1701       C  0.74458715  0.96195321  0.15643520     0.35920
C1702       C  0.74362542  0.96149551  0.18882946    -0.26090
C1703       C  0.75141418  0.98752434  0.20616991    -0.15330
C1704       C  0.76208596  0.01419901  0.19092316     0.37000
N1705       N  0.76994043  0.04120821  0.20824124    -0.89580
H1706       H  0.77112753  0.03578596  0.14706018     0.18120
H1707       H  0.73517880  0.94110790  0.20067611     0.18110
N1708       N  0.73414224  0.93524734  0.13973499    -0.88610
H1709       H  0.75580022  0.05937853  0.20083265     0.35480
H1710       H  0.79279976  0.04695139  0.20299547     0.40580
H1711       H  0.71226635  0.94051178  0.13096755     0.40200
H1712       H  0.73095372  0.91647084  0.15464365     0.35090
C1713       C  0.25863670  0.83390599  0.02257286    -0.26640
C1714       C  0.25548790  0.84854596  0.99356422    -0.14710
C1715       C  0.25015704  0.82943882  0.96733124     0.35920
C1716       C  0.25115807  0.79719514  0.97040296    -0.26090
C1717       C  0.25893584  0.78326946  0.99857208    -0.15330
C1718       C  0.26118573  0.80160457  0.02521203     0.37000
N1719       N  0.26670790  0.78737258  0.05472642    -0.89580
H1720       H  0.26130791  0.84771197  0.04323064     0.18120
H1721       H  0.24898329  0.78295120  0.94993710     0.18110
N1722       N  0.24526199  0.84143542  0.93695002    -0.88610
H1723       H  0.26697119  0.80402018  0.07220874     0.35480
H1724       H  0.28875214  0.77748279  0.05419009     0.40580
H1725       H  0.26639193  0.84866516  0.92787906     0.40200
H1726       H  0.22927134  0.85956035  0.93786219     0.35090
C1727       C  0.25879008  0.14270788  0.02657917    -0.26640
C1728       C  0.24971914  0.12641794  0.99996059    -0.14710
C1729       C  0.23995283  0.14363110  0.97377632     0.35920
C1730       C  0.24251301  0.17602486  0.97393008    -0.26090
C1731       C  0.25387484  0.19179192  0.99983076    -0.15330
C1732       C  0.26101592  0.17502570  0.02672132     0.37000
N1733       N  0.27179105  0.19089482  0.05375226    -0.89580
H1734       H  0.26604873  0.13039635  0.04703437     0.18120
H1735       H  0.23670599  0.18886552  0.95325322     0.18110
N1736       N  0.22752224  0.12921960  0.94666376    -0.88610
H1737       H  0.27697905  0.17521921  0.07140881     0.35480
H1738       H  0.25359986  0.20462108  0.06186779     0.40580
H1739       H  0.22262836  0.10590451  0.95038690     0.40200
H1740       H  0.24412311  0.13073624  0.92914596     0.35090
C1741       C  0.25236607  0.02010929  0.84015332    -0.26640
C1742       C  0.25867672  0.99168526  0.85464030    -0.14710
C1743       C  0.26461948  0.96550630  0.83577914     0.35920
C1744       C  0.26607840  0.96906024  0.80346689    -0.26090
C1745       C  0.26248706  0.99808046  0.78942885    -0.15330
C1746       C  0.25473723  0.02385868  0.80809766     0.37000
N1747       N  0.25068738  0.05450673  0.79590466    -0.89580
H1748       H  0.24685463  0.04027823  0.85388994     0.18120
H1749       H  0.27167531  0.94926069  0.78917004     0.18110
N1750       N  0.27052975  0.93566367  0.84921245    -0.88610
H1751       H  0.22807644  0.06150529  0.80084497     0.35480
H1752       H  0.25308471  0.05494665  0.77199904     0.40580
H1753       H  0.29285522  0.93616572  0.85831999     0.40200
H1754       H  0.27092174  0.91858848  0.83213489     0.35090
C1755       C  0.26507853  0.01509028  0.14954242    -0.26640
C1756       C  0.25287377  0.98897221  0.13457757    -0.14710
C1757       C  0.24056210  0.96471675  0.15300282     0.35920
C1758       C  0.24404157  0.96582548  0.18534428    -0.26090
C1759       C  0.25808408  0.99119511  0.19979535    -0.15330
C1760       C  0.26782281  0.01629638  0.18168136     0.37000
N1761       N  0.28132529  0.04288511  0.19587780    -0.89580
H1762       H  0.27414721  0.03429273  0.13626922     0.18120
H1763       H  0.23617693  0.94651810  0.19922146     0.18110
N1764       N  0.22454511  0.93879174  0.13992394    -0.88610
H1765       H  0.30360892  0.04564932  0.18693656     0.35480
H1766       H  0.26825980  0.06227914  0.18968538     0.40580
H1767       H  0.22011887  0.94240963  0.11652687     0.39480
H1768       H  0.20272666  0.93787124  0.15030300     0.35090
C1769       C  0.47203150  0.14387029  0.23967622    -0.26640
C1770       C  0.49857724  0.12927137  0.25144683    -0.14710
C1771       C  0.52265807  0.14810930  0.26327496     0.35920
C1772       C  0.52096288  0.18047040  0.25954096    -0.26090
C1773       C  0.49514827  0.19460475  0.24584529    -0.15330
C1774       C  0.47022377  0.17602160  0.23670597     0.37000
N1775       N  0.44297783  0.18973553  0.22395783    -0.89580
H1776       H  0.45290409  0.13028647  0.23113499     0.18120
H1777       H  0.54011336  0.19463618  0.26705080     0.18110
N1778       N  0.54898013  0.13542440  0.27907886    -0.88610
H1779       H  0.42416166  0.18328937  0.23769143     0.35480
H1780       H  0.43968654  0.18066009  0.20184016     0.40580
H1781       H  0.54548876  0.11214817  0.28431502     0.40200
H1782       H  0.55030606  0.14629513  0.30059570     0.35090
C1783       C  0.48150153  0.83298851  0.25269998    -0.26640
C1784       C  0.50883395  0.84957468  0.24673560    -0.14710
C1785       C  0.53649078  0.83251447  0.24139058     0.35920
C1786       C  0.53552261  0.80027475  0.23980187    -0.26090
C1787       C  0.50780347  0.78412878  0.24328210    -0.15330
C1788       C  0.48060760  0.80051445  0.25069929     0.37000
N1789       N  0.45186875  0.78437062  0.25432132    -0.89580
H1790       H  0.46033255  0.84537536  0.25770843     0.18120
H1791       H  0.55654296  0.78777228  0.23440422     0.18110
N1792       N  0.56581216  0.84688742  0.23620847    -0.88610
H1793       H  0.43371738  0.79998349  0.25781246     0.35480
H1794       H  0.45335752  0.77120578  0.27446423     0.40580
H1795       H  0.57063861  0.86160544  0.25469583     0.40200
H1796       H  0.56515295  0.85931168  0.21551074     0.35090
C1797       C  0.34746047  0.01048142  0.25768399    -0.26640
C1798       C  0.36379909  0.98474744  0.24616414    -0.14710
C1799       C  0.34658520  0.95949241  0.23415435     0.35920
C1800       C  0.31447383  0.96159841  0.23211295    -0.26090
C1801       C  0.29857914  0.98815534  0.24156113    -0.15330
C1802       C  0.31511626  0.01244440  0.25534908     0.37000
N1803       N  0.29938279  0.03969302  0.26568685    -0.89580
H1804       H  0.35993538  0.02984610  0.26735356     0.18120
H1805       H  0.30180970  0.94267600  0.22177874     0.18110
N1806       N  0.36070818  0.93192300  0.22236609    -0.88610
H1807       H  0.30865711  0.05868210  0.25396419     0.35480
H1808       H  0.30398206  0.04246307  0.28921497     0.40580
H1809       H  0.37414687  0.92185345  0.23971351     0.40200
H1810       H  0.37435920  0.93748091  0.20321534     0.35090
C1811       C  0.66005160  0.96466129  0.25584133    -0.26640
C1812       C  0.64433213  0.99209310  0.24799032    -0.14710
C1813       C  0.66193632  0.01866299  0.24040073     0.35920
C1814       C  0.69428878  0.01668364  0.23988901    -0.26090
C1815       C  0.70981311  0.98908404  0.24677741    -0.15330
C1816       C  0.69249094  0.96266178  0.25465231     0.37000
N1817       N  0.70757543  0.93336455  0.25898072    -0.89580
H1818       H  0.64697409  0.94418545  0.26173392     0.18120
H1819       H  0.70758329  0.03657560  0.23253822     0.18110
N1820       N  0.64723851  0.04714453  0.23146362    -0.88610
H1821       H  0.69131378  0.91560313  0.26048961     0.35480
H1822       H  0.71838321  0.93398689  0.28040767     0.40580
H1823       H  0.63854784  0.04402042  0.20917689     0.40200
H1824       H  0.66343994  0.06494423  0.22967817     0.35090
C1825       C  0.69151258  0.25873094  0.02146540    -0.26640
C1826       C  0.70653293  0.24268336  0.99753010    -0.14710
C1827       C  0.68906704  0.23129441  0.97271560     0.35920
C1828       C  0.65677538  0.23326668  0.97380814    -0.26090
C1829       C  0.64128651  0.24644273  0.99927366    -0.15330
C1830       C  0.65916298  0.26086569  0.02254146     0.37000
N1831       N  0.64542785  0.27812702  0.04723928    -0.89580
H1832       H  0.70487084  0.26809127  0.04036168     0.18120
H1833       H  0.64371694  0.22295651  0.95520662     0.18110
N1834       N  0.70428080  0.21673409  0.94696645    -0.88610
H1835       H  0.63357770  0.26320270  0.06193220     0.35480
H1836       H  0.62995770  0.29417578  0.03787499     0.40580
H1837       H  0.71785808  0.23349645  0.93607965     0.40200
H1838       H  0.68817846  0.20930051  0.93065693     0.35090
C1839       C  0.34432509  0.25399646  0.01554284    -0.26640
C1840       C  0.36151321  0.23698956  0.99375270    -0.14710
C1841       C  0.34537194  0.21692623  0.97345599     0.35920
C1842       C  0.31332819  0.21530961  0.97477507    -0.26090
C1843       C  0.29609441  0.23187555  0.99661597    -0.15330
C1844       C  0.31182523  0.25136365  0.01755187     0.37000
N1845       N  0.29513075  0.26773635  0.04116629    -0.89580
H1846       H  0.35646047  0.26858339  0.03178712     0.18120
H1847       H  0.30171521  0.19994813  0.95884997     0.18110
N1848       N  0.36042922  0.19607835  0.95256013    -0.88610
H1849       H  0.31011639  0.28123495  0.05434360     0.35480
H1850       H  0.28552072  0.25145722  0.05616148     0.40580
H1851       H  0.37686825  0.18295461  0.96444940     0.40200
H1852       H  0.37040805  0.20850036  0.93448405     0.35090
C1853       C  0.52536683  0.25720213  0.80930582    -0.26640
C1854       C  0.50142980  0.24139978  0.79432525    -0.14710
C1855       C  0.47673051  0.22968755  0.81197441     0.35920
C1856       C  0.47779948  0.23140216  0.84430162    -0.26090
C1857       C  0.50303070  0.24476890  0.85972074    -0.15330
C1858       C  0.52632597  0.25923645  0.84168613     0.37000
N1859       N  0.55087198  0.27659691  0.85527140    -0.89580
H1860       H  0.54417666  0.26679862  0.79585346     0.18120
H1861       H  0.45924177  0.22096746  0.85745676     0.18110
N1862       N  0.45097110  0.21528361  0.79690714    -0.88610
H1863       H  0.54141074  0.29248313  0.87085436     0.35480
H1864       H  0.56574627  0.26169064  0.86692240     0.40580
H1865       H  0.43996997  0.23220239  0.78358253     0.40200
H1866       H  0.43476215  0.20759150  0.81310902     0.35090
C1867       C  0.52451159  0.23014803  0.18991201    -0.26640
C1868       C  0.49669152  0.23663778  0.20519019    -0.14710
C1869       C  0.47146971  0.24840311  0.18791687     0.35920
C1870       C  0.47422634  0.25105541  0.15565795    -0.26090
C1871       C  0.50139474  0.24229167  0.14004436    -0.15330
C1872       C  0.52743816  0.23333701  0.15775601     0.37000
N1873       N  0.55646213  0.22624215  0.14314158    -0.89580
H1874       H  0.54401168  0.22186351  0.20325264     0.18120
H1875       H  0.45438207  0.25886923  0.14258922     0.18110
N1876       N  0.44257605  0.25705438  0.20191647    -0.88610
H1877       H  0.57273769  0.21890903  0.15939694     0.35480
H1878       H  0.56495125  0.24680341  0.13369372     0.40580
H1879       H  0.44266047  0.25286180  0.22559604     0.40200
H1880       H  0.42538709  0.24294940  0.19263216     0.35090
C1881       C  0.70051540  0.02170284  0.76607108    -0.26640
C1882       C  0.71548135  0.99504310  0.75532786    -0.14710
C1883       C  0.69753636  0.97126727  0.74218358     0.35920
C1884       C  0.66536268  0.97471667  0.73997808    -0.26090
C1885       C  0.65018664  0.00076853  0.75198235    -0.15330
C1886       C  0.66819101  0.02448362  0.76565802     0.37000
N1887       N  0.65394814  0.05019167  0.78120138    -0.89580
H1888       H  0.71408266  0.03980817  0.77662253     0.18120
H1889       H  0.65194637  0.95602820  0.73020078     0.18110
N1890       N  0.71134371  0.94279798  0.73258181    -0.88610
H1891       H  0.67053219  0.06588521  0.78893085     0.35480
H1892       H  0.64314785  0.04151739  0.80103384     0.40580
H1893       H  0.70541980  0.93910386  0.70947967     0.40200
H1894       H  0.70151427  0.92494895  0.74558243     0.35090
C1895       C  0.31777954  0.97152234  0.74101207    -0.26640
C1896       C  0.30383692  0.00000909  0.74791334    -0.14710
C1897       C  0.32277753  0.02612972  0.75182859     0.35920
C1898       C  0.35500863  0.02287627  0.75040118    -0.26090
C1899       C  0.36931311  0.99395216  0.74575317    -0.15330
C1900       C  0.34999084  0.96818401  0.73951295     0.37000
N1901       N  0.36181848  0.93815158  0.73225486    -0.89580
H1902       H  0.30357187  0.95112643  0.73857797     0.18120
H1903       H  0.36901059  0.04319615  0.75426668     0.18110
N1904       N  0.30941863  0.05582071  0.75824309    -0.88610
H1905       H  0.36934327  0.92755814  0.75254366     0.35480
H1906       H  0.37978917  0.94017425  0.71620622     0.40580
H1907       H  0.29849241  0.06316245  0.73808335     0.40200
H1908       H  0.32653497  0.07217412  0.76279951     0.35090
C1909       C  0.53223865  0.15109237  0.75979315    -0.26640
C1910       C  0.50729697  0.13508652  0.74661092    -0.14710
C1911       C  0.48262215  0.15255342  0.73370858     0.35920
C1912       C  0.48198045  0.18488002  0.73768455    -0.26090
C1913       C  0.50597335  0.20030177  0.75297558    -0.15330
C1914       C  0.53171277  0.18326702  0.76306908     0.37000
N1915       N  0.55721054  0.19862236  0.77734756    -0.89580
H1916       H  0.55175479  0.13855480  0.76922043     0.18120
H1917       H  0.46234391  0.19797457  0.72928587     0.18110
N1918       N  0.45794326  0.13847885  0.71664936    -0.88610
H1919       H  0.57713109  0.19357986  0.76459000     0.35480
H1920       H  0.55998538  0.18950635  0.79955515     0.40580
H1921       H  0.46291703  0.11535620  0.71190138     0.40200
H1922       H  0.45714968  0.14918869  0.69499044     0.35090
C1923       C  0.53635349  0.83729396  0.74104970    -0.26640
C1924       C  0.50945937  0.85421602  0.74834043    -0.14710
C1925       C  0.48187754  0.83766774  0.75484528     0.35920
C1926       C  0.48241787  0.80524882  0.75537934    -0.26090
C1927       C  0.50943072  0.78855430  0.74924996    -0.15330
C1928       C  0.53668552  0.80465421  0.74164663     0.37000
N1929       N  0.56493779  0.78796507  0.73632091    -0.89580
H1930       H  0.55750554  0.84953250  0.73581783     0.18120
H1931       H  0.46167831  0.79279017  0.76174174     0.18110
N1932       N  0.45363294  0.85348963  0.76253228    -0.88610
H1933       H  0.58320341  0.80328566  0.73258184     0.35480
H1934       H  0.56240240  0.77549794  0.71587183     0.40580
H1935       H  0.45583118  0.86155616  0.78517880     0.40200
H1936       H  0.43506178  0.83809083  0.76289987     0.35090
C1937       C  0.35446756  0.72161047  0.01063625    -0.26640
C1938       C  0.37090331  0.74573565  0.99666150    -0.14710
C1939       C  0.35421600  0.77133904  0.98495903     0.35920
C1940       C  0.32209914  0.76971220  0.98317889    -0.26090
C1941       C  0.30481606  0.74598758  0.99751959    -0.15330
C1942       C  0.32190692  0.72229418  0.01273709     0.37000
N1943       N  0.30718274  0.70018388  0.03230489    -0.89580
H1944       H  0.36707356  0.70283449  0.02147028     0.18120
H1945       H  0.31074548  0.78890818  0.97195156     0.18110
N1946       N  0.36855301  0.80011176  0.97616957    -0.88610
H1947       H  0.31324170  0.67809761  0.02447800     0.35480
H1948       H  0.31597579  0.70268713  0.05462004     0.40580
H1949       H  0.39127417  0.80132423  0.98375814     0.40200
H1950       H  0.35751232  0.81780037  0.98848695     0.35090
C1951       C  0.69854877  0.73317759  0.02147489    -0.26640
C1952       C  0.71465472  0.74624510  0.99652298    -0.14710
C1953       C  0.69861820  0.75393115  0.96939356     0.35920
C1954       C  0.66648552  0.75044638  0.96841160    -0.26090
C1955       C  0.64969718  0.73949058  0.99410263    -0.15330
C1956       C  0.66634567  0.72909723  0.02041459     0.37000
N1957       N  0.65148562  0.71490934  0.04657885    -0.89580
H1958       H  0.71099939  0.72683891  0.04223165     0.18120
H1959       H  0.65461134  0.75819863  0.94789972     0.18110
N1960       N  0.71499593  0.76651240  0.94332281    -0.88610
H1961       H  0.66177165  0.69324693  0.04984927     0.35480
H1962       H  0.62835433  0.71018816  0.04196750     0.40580
H1963       H  0.73008910  0.74943839  0.93519466     0.40200
H1964       H  0.69983207  0.77152949  0.92523801     0.35090
C1965       C  0.48113348  0.75334728  0.18425397    -0.26640
C1966       C  0.50704020  0.74396232  0.20107623    -0.14710
C1967       C  0.53262527  0.73123046  0.18526460     0.35920
C1968       C  0.53223788  0.72978062  0.15269500    -0.26090
C1969       C  0.50672885  0.74056102  0.13568661    -0.15330
C1970       C  0.48026850  0.75123376  0.15198470     0.37000
N1971       N  0.45297746  0.76122815  0.13590443    -0.89580
H1972       H  0.46141434  0.76283150  0.19644385     0.18120
H1973       H  0.55236273  0.72115543  0.14049782     0.18110
N1974       N  0.55912666  0.72057136  0.20214967    -0.88610
H1975       H  0.43649670  0.77002801  0.15128326     0.35480
H1976       H  0.44310033  0.74164835  0.12586948     0.40580
H1977       H  0.56921180  0.73965196  0.21282379     0.40200
H1978       H  0.57573305  0.71146354  0.18709803     0.35090
C1979       C  0.48502501  0.73762167  0.83883418    -0.26640
C1980       C  0.51267830  0.74339528  0.85479811    -0.14710
C1981       C  0.53997773  0.74872220  0.83734605     0.35920
C1982       C  0.53836071  0.75002048  0.80493381    -0.26090
C1983       C  0.51030747  0.74642566  0.78937479    -0.15330
C1984       C  0.48345682  0.73948018  0.80643182     0.37000
N1985       N  0.45439396  0.73588753  0.79100477    -0.89580
H1986       H  0.46412942  0.73267916  0.85164841     0.18120
H1987       H  0.55893765  0.75542947  0.79172482     0.18110
N1988       N  0.56901682  0.75436363  0.85229185    -0.88610
H1989       H  0.43639896  0.73420627  0.80706864     0.35480
H1990       H  0.45515648  0.71462779  0.77971218     0.40580
H1991       H  0.56828420  0.77693270  0.86089423     0.40200
H1992       H  0.58707268  0.75403207  0.83619605     0.35090
C1993       C  0.85342605  0.75871393  0.01811239    -0.26640
C1994       C  0.86948914  0.74236069  0.99494804    -0.14710
C1995       C  0.85200216  0.72470490  0.97351062     0.35920
C1996       C  0.81997883  0.72397034  0.97578561    -0.26090
C1997       C  0.80402247  0.73937431  0.99931213    -0.15330
C1998       C  0.82087185  0.75728723  0.02069801     0.37000
N1999       N  0.80521011  0.77320894  0.04531286    -0.89580
H2000       H  0.86646751  0.77173849  0.03496624     0.18120
H2001       H  0.80731295  0.71003162  0.95934889     0.18110
N2002       N  0.86554394  0.70541325  0.95025681    -0.88610
H2003       H  0.82097452  0.78532780  0.05891305     0.35480
H2004       H  0.79497118  0.75670113  0.05964084     0.40580
H2005       H  0.88157195  0.69035066  0.96027305     0.40200
H2006       H  0.87553901  0.71917388  0.93317697     0.35090
C2007       C  0.16396890  0.73223611  0.97180374    -0.26640
C2008       C  0.14908783  0.74149533  0.99927684    -0.14710
C2009       C  0.16762357  0.75100362  0.02454365     0.35920
C2010       C  0.19982850  0.74672902  0.02306567    -0.26090
C2011       C  0.21422403  0.73537297  0.99625949    -0.15330
C2012       C  0.19613416  0.72917425  0.97014969     0.37000
N2013       N  0.21034113  0.71895903  0.94204529    -0.89580
H2014       H  0.15059407  0.72571687  0.95174967     0.18120
H2015       H  0.21369575  0.75201759  0.04313962     0.18110
N2016       N  0.15476128  0.76493081  0.05186784    -0.88610
H2017       H  0.20439079  0.73454556  0.92455071     0.35480
H2018       H  0.20116966  0.69736740  0.93638804     0.40580
H2019       H  0.13207666  0.77203043  0.04786924     0.40200
H2020       H  0.16665463  0.78557583  0.05570563     0.35090
C2021       C  0.03614830  0.72840442  0.80979203    -0.26640
C2022       C  0.01006705  0.74063548  0.79515813    -0.14710
C2023       C  0.98688799  0.75469392  0.81333903     0.35920
C2024       C  0.98995436  0.75558055  0.84565731    -0.26090
C2025       C  0.01525438  0.74174138  0.86051837    -0.15330
C2026       C  0.03871932  0.72786081  0.84209475     0.37000
N2027       N  0.06386098  0.71105312  0.85582537    -0.89580
H2028       H  0.05372238  0.71715147  0.79586548     0.18120
H2029       H  0.97157847  0.76579069  0.85934602     0.18110
N2030       N  0.95939066  0.76654899  0.79946252    -0.88610
H2031       H  0.07954576  0.70350428  0.83901890     0.35480
H2032       H  0.05461693  0.69108115  0.86583427     0.40580
H2033       H  0.95736706  0.78987801  0.80546820     0.40200
H2034       H  0.94051517  0.75487293  0.80898652     0.35090
C2035       C  0.03325343  0.73086410  0.18980157    -0.26640
C2036       C  0.00545364  0.73750904  0.20498397    -0.14710
C2037       C  0.98037214  0.74942134  0.18790110     0.35920
C2038       C  0.98293736  0.75189726  0.15555370    -0.26090
C2039       C  0.00997891  0.74272398  0.13993852    -0.15330
C2040       C  0.03609614  0.73387283  0.15761988     0.37000
N2041       N  0.06504229  0.72660383  0.14293859    -0.89580
H2042       H  0.05265844  0.72241017  0.20316776     0.18120
H2043       H  0.96318742  0.75975157  0.14238993     0.18110
N2044       N  0.95221158  0.75826187  0.20319331    -0.88610
H2045       H  0.08140626  0.71950009  0.15920633     0.35480
H2046       H  0.07345945  0.74703781  0.13315504     0.40580
H2047       H  0.94221443  0.73847642  0.21267719     0.40200
H2048       H  0.93631596  0.76713572  0.18733323     0.35090
C2049       C  0.84532637  0.23635250  0.02304012    -0.26640
C2050       C  0.86124589  0.24487432  0.99593097    -0.14710
C2051       C  0.84379567  0.25345674  0.96953449     0.35920
C2052       C  0.81146824  0.25487485  0.97156217    -0.26090
C2053       C  0.79589781  0.24828929  0.99915513    -0.15330
C2054       C  0.81286949  0.23813309  0.02501819     0.37000
N2055       N  0.79739597  0.23136427  0.05363995    -0.89580
H2056       H  0.85829233  0.22925699  0.04319637     0.18120
H2057       H  0.79826724  0.26261927  0.95175754     0.18110
N2058       N  0.85867815  0.26239695  0.94117322    -0.88610
H2059       H  0.81343084  0.22628428  0.07093865     0.35480
H2060       H  0.78454023  0.21126912  0.05048971     0.40580
H2061       H  0.86792392  0.28443574  0.94456930     0.40200
H2062       H  0.84250495  0.26482824  0.92343666     0.35090
C2063       C  0.02374258  0.23374295  0.80628248    -0.26640
C2064       C  0.99785767  0.24603339  0.79103131    -0.14710
C2065       C  0.97101132  0.25245615  0.80836021     0.35920
C2066       C  0.97109579  0.24851311  0.84034484    -0.26090
C2067       C  0.99778398  0.23888425  0.85624181    -0.15330
C2068       C  0.02391329  0.22955397  0.83856129     0.37000
N2069       N  0.05107549  0.21631561  0.85240191    -0.89580
H2070       H  0.04435677  0.22827669  0.79313531     0.18120
H2071       H  0.95045214  0.25523373  0.85272468     0.18110
N2072       N  0.94349188  0.26411812  0.79423569    -0.88610
H2073       H  0.05499221  0.19493325  0.84181870     0.35480
H2074       H  0.04727777  0.21105773  0.87561744     0.40580
H2075       H  0.93692185  0.24889876  0.77673088     0.40200
H2076       H  0.94828613  0.28573065  0.78463437     0.35090
C2077       C  0.15781939  0.24374619  0.96460190    -0.26640
C2078       C  0.14115435  0.23553742  0.99138021    -0.14710
C2079       C  0.15804058  0.22635382  0.01794318     0.35920
C2080       C  0.19041960  0.22779247  0.01772981    -0.26090
C2081       C  0.20653194  0.23878231  0.99178730    -0.15330
C2082       C  0.19014065  0.24577785  0.96466962     0.37000
N2083       N  0.20638175  0.25622021  0.93761530    -0.89580
H2084       H  0.14583325  0.25043087  0.94380135     0.18120
H2085       H  0.20295932  0.22225264  0.03863941     0.18110
N2086       N  0.14312243  0.21608194  0.04567738    -0.88610
H2087       H  0.19097313  0.26122332  0.91973436     0.35480
H2088       H  0.22022086  0.23794354  0.92990298     0.40580
H2089       H  0.12790422  0.19823633  0.04009948     0.40200
H2090       H  0.13074040  0.23443156  0.05534500     0.35090
C2091       C  0.02798265  0.25673978  0.18573534    -0.26640
C2092       C  0.00318038  0.24332947  0.20155417    -0.14710
C2093       C  0.97993366  0.22837142  0.18449404     0.35920
C2094       C  0.98187001  0.22738549  0.15198281    -0.26090
C2095       C  0.00621112  0.24187214  0.13602087    -0.15330
C2096       C  0.02935171  0.25719547  0.15338568     0.37000
N2097       N  0.05296507  0.27518602  0.13847137    -0.89580
H2098       H  0.04556887  0.26872288  0.19880034     0.18120
H2099       H  0.96359639  0.21628435  0.13908079     0.18110
N2100       N  0.95363853  0.21551146  0.19987628    -0.88610
H2101       H  0.06843151  0.28422644  0.15458891     0.35480
H2102       H  0.04214303  0.29418633  0.12810264     0.40580
H2103       H  0.95245251  0.19205871  0.19419144     0.40200
H2104       H  0.93384610  0.22636339  0.19126267     0.35090
C2105       C  0.81421131  0.47145565  0.25848485    -0.26640
C2106       C  0.79980514  0.49554617  0.24201129    -0.14710
C2107       C  0.81826888  0.51885249  0.22892383     0.35920
C2108       C  0.85030931  0.51768877  0.23194215    -0.26090
C2109       C  0.86511830  0.49341615  0.24770956    -0.15330
C2110       C  0.84660647  0.47025751  0.26182424     0.37000
N2111       N  0.85966633  0.44517901  0.27934191    -0.89580
H2112       H  0.80028468  0.45309283  0.26824986     0.18120
H2113       H  0.86356201  0.53544583  0.22036389     0.18110
N2114       N  0.80455342  0.54370665  0.21189318    -0.88610
H2115       H  0.85070279  0.44660611  0.30175417     0.35480
H2116       H  0.88351701  0.44750015  0.28161832     0.40580
H2117       H  0.81356025  0.54336961  0.18945305     0.40200
H2118       H  0.81097030  0.56452211  0.22227148     0.35090
C2119       C  0.16032026  0.45544332  0.23825684    -0.26640
C2120       C  0.14463796  0.48156789  0.24990279    -0.14710
C2121       C  0.16251444  0.50664244  0.26112092     0.35920
C2122       C  0.19490531  0.50582544  0.25808760    -0.26090
C2123       C  0.21006732  0.48024240  0.24494416    -0.15330
C2124       C  0.19253425  0.45469369  0.23564534     0.37000
N2125       N  0.20741149  0.42811665  0.22259971    -0.89580
H2126       H  0.14773838  0.43583648  0.22941110     0.18120
H2127       H  0.20823680  0.52569110  0.26526734     0.18110
N2128       N  0.14884133  0.53313918  0.27581234    -0.88610
H2129       H  0.19871680  0.42480347  0.20034276     0.35480
H2130       H  0.20153402  0.40885700  0.23597304     0.40580
H2131       H  0.12540067  0.52990337  0.28033430     0.40200
H2132       H  0.15103811  0.55191684  0.26074118     0.35090
C2133       C  0.97802468  0.67761644  0.23209502    -0.26640
C2134       C  0.00245689  0.69462325  0.24440831    -0.14710
C2135       C  0.02720103  0.67865128  0.25832392     0.35920
C2136       C  0.02694478  0.64604471  0.25959297    -0.26090
C2137       C  0.00258491  0.62892877  0.24667620    -0.15330
C2138       C  0.97765190  0.64543440  0.23291090     0.37000
N2139       N  0.95220818  0.63062064  0.21795619    -0.89580
H2140       H  0.95922863  0.68944952  0.22065353     0.18120
H2141       H  0.04640302  0.63404804  0.26981636     0.18110
N2142       N  0.05328779  0.69526282  0.26975657    -0.88610
H2143       H  0.94031849  0.61703324  0.23400636     0.35480
H2144       H  0.96046817  0.61713170  0.19967460     0.40580
H2145       H  0.07290239  0.68756057  0.25788056     0.40200
H2146       H  0.05600970  0.68961467  0.29308605     0.35090
C2147       C  0.97294393  0.33274894  0.23987672    -0.26640
C2148       C  0.99993675  0.34853220  0.24873786    -0.14710
C2149       C  0.02614169  0.33076980  0.25742753     0.35920
C2150       C  0.02534395  0.29842293  0.25508160    -0.26090
C2151       C  0.99912413  0.28328609  0.24374920    -0.15330
C2152       C  0.97241550  0.30048517  0.23699449     0.37000
N2153       N  0.94520681  0.28511990  0.22592462    -0.89580
H2154       H  0.95244796  0.34540392  0.23337108     0.18120
H2155       H  0.04588229  0.28514046  0.26050529     0.18110
N2156       N  0.05401776  0.34477389  0.26823283    -0.88610
H2157       H  0.92757952  0.30106370  0.22145284     0.35480
H2158       H  0.93717196  0.27070165  0.24357725     0.40580
H2159       H  0.04854428  0.35953431  0.28656617     0.40200
H2160       H  0.06394840  0.35758481  0.25034956     0.35090
C2161       C  0.24445199  0.46030329  0.84229632    -0.26640
C2162       C  0.25797541  0.48466295  0.85897183    -0.14710
C2163       C  0.27056580  0.50996979  0.84230457     0.35920
C2164       C  0.26732487  0.51117859  0.81002429    -0.26090
C2165       C  0.25205240  0.48764094  0.79385541    -0.15330
C2166       C  0.24126261  0.46158767  0.81011640     0.37000
N2167       N  0.22602161  0.43696215  0.79393470    -0.89580
H2168       H  0.23453800  0.44079487  0.85434708     0.18120
H2169       H  0.27588466  0.53116945  0.79759462     0.18110
N2170       N  0.28667868  0.53481101  0.85717448    -0.88610
H2171       H  0.21895726  0.41965171  0.80926038     0.35480
H2172       H  0.24210431  0.42680176  0.77901417     0.40580
H2173       H  0.29068918  0.53019019  0.88047988     0.40200
H2174       H  0.27276659  0.55456235  0.85580031     0.35090
C2175       C  0.26640991  0.46527106  0.15331806    -0.26640
C2176       C  0.25425743  0.49151470  0.13852642    -0.14710
C2177       C  0.24140082  0.51535269  0.15706022     0.35920
C2178       C  0.24062193  0.51215618  0.18927016    -0.26090
C2179       C  0.25136700  0.48532479  0.20384971    -0.15330
C2180       C  0.26478144  0.46181791  0.18561258     0.37000
N2181       N  0.27530347  0.43369126  0.19938401    -0.89580
H2182       H  0.27592795  0.44657402  0.13958677     0.18120
H2183       H  0.22989591  0.53023114  0.20296333     0.18110
N2184       N  0.22706967  0.54198226  0.14359294    -0.88610
H2185       H  0.29856256  0.43081794  0.19346354     0.35480
H2186       H  0.26301803  0.41540024  0.18960706     0.40580
H2187       H  0.23795618  0.56168271  0.15225387     0.40200
H2188       H  0.20393647  0.54255225  0.15059251     0.35090
C2189       C  0.26695603  0.64450387  0.97255627    -0.26640
C2190       C  0.25589204  0.62821014  0.99851607    -0.14710
C2191       C  0.24532382  0.64528990  0.02445947     0.35920
C2192       C  0.24442487  0.67761035  0.02298629    -0.26090
C2193       C  0.25448300  0.69380320  0.99679115    -0.15330
C2194       C  0.26655055  0.67705030  0.97136940     0.37000
N2195       N  0.27723854  0.69194747  0.94364148    -0.89580
H2196       H  0.27527120  0.63183949  0.95260750     0.18120
H2197       H  0.23516663  0.69047559  0.04241375     0.18110
N2198       N  0.23406113  0.63007185  0.05180443    -0.88610
H2199       H  0.30078262  0.68701539  0.94135739     0.35480
H2200       H  0.27529244  0.71594216  0.94509742     0.40580
H2201       H  0.21230283  0.62108846  0.04658715     0.40200
H2202       H  0.23047352  0.64597485  0.06964288     0.35090
C2203       C  0.26761662  0.33054475  0.97948748    -0.26640
C2204       C  0.25071230  0.34665157  0.00219930    -0.14710
C2205       C  0.23111454  0.32942200  0.02219906     0.35920
C2206       C  0.22953557  0.29744227  0.01943086    -0.26090
C2207       C  0.24594558  0.28134228  0.99663539    -0.15330
C2208       C  0.26525832  0.29809497  0.97624800     0.37000
N2209       N  0.28183695  0.28243837  0.95206979    -0.89580
H2210       H  0.28193155  0.34350960  0.96353083     0.18120
H2211       H  0.21450526  0.28498256  0.03513050     0.18110
N2212       N  0.21083212  0.34332186  0.04440783    -0.88610
H2213       H  0.29520946  0.29808056  0.93940762     0.35480
H2214       H  0.26570264  0.27327597  0.93676641     0.40580
H2215       H  0.19718423  0.36014573  0.03367648     0.40200
H2216       H  0.22376256  0.35261578  0.06239483     0.35090
C2217       C  0.16255790  0.52099522  0.76085121    -0.26640
C2218       C  0.14614181  0.49691943  0.74659380    -0.14710
C2219       C  0.16311119  0.47189515  0.73361927     0.35920
C2220       C  0.19546961  0.47090501  0.73686095    -0.26090
C2221       C  0.21130376  0.49423831  0.75276053    -0.15330
C2222       C  0.19468605  0.51985072  0.76419587     0.37000
N2223       N  0.21054577  0.54436339  0.77995680    -0.89580
H2224       H  0.15033616  0.54023706  0.77113198     0.18120
H2225       H  0.20821641  0.45130286  0.72779485     0.18110
N2226       N  0.14850388  0.44719579  0.71705110    -0.88610
H2227       H  0.19503065  0.56140218  0.78734043     0.35480
H2228       H  0.22539534  0.55494540  0.76410191     0.40580
H2229       H  0.12509611  0.45155455  0.71337729     0.40200
H2230       H  0.15028791  0.42718543  0.73051623     0.35090
C2231       C  0.98771990  0.33917420  0.73059042    -0.26640
C2232       C  0.01001949  0.35437382  0.74847391    -0.14710
C2233       C  0.02928777  0.33624786  0.76794908     0.35920
C2234       C  0.02631498  0.30421264  0.76833650    -0.26090
C2235       C  0.00354628  0.28892742  0.75129943    -0.15330
C2236       C  0.98384753  0.30676362  0.73210593     0.37000
N2237       N  0.95926295  0.29246100  0.71522364    -0.89580
H2238       H  0.97227778  0.35287556  0.71640270     0.18120
H2239       H  0.04145279  0.29112054  0.78338313     0.18110
N2240       N  0.05065132  0.34927754  0.78946986    -0.88610
H2241       H  0.94736779  0.30877883  0.70193161     0.35480
H2242       H  0.94339068  0.28363488  0.73109490     0.40580
H2243       H  0.03933527  0.36559111  0.80328605     0.40200
H2244       H  0.06907988  0.35914035  0.77750428     0.35090
C2245       C  0.02895045  0.68405627  0.74025276    -0.26640
C2246       C  0.00402499  0.69976244  0.75397435    -0.14710
C2247       C  0.97800289  0.68290561  0.76332248     0.35920
C2248       C  0.97769135  0.65073277  0.76020729    -0.26090
C2249       C  0.00314625  0.63449762  0.74787621    -0.15330
C2250       C  0.02860587  0.65174716  0.73643180     0.37000
N2251       N  0.05458151  0.63745236  0.72129077    -0.89580
H2252       H  0.04920557  0.69681372  0.73315621     0.18120
H2253       H  0.95784135  0.63856084  0.76921386     0.18110
N2254       N  0.95206508  0.69839037  0.77694887    -0.88610
H2255       H  0.05654783  0.64744316  0.69936137     0.35480
H2256       H  0.05063299  0.61403794  0.71724056     0.40580
H2257       H  0.94866721  0.68936198  0.79911814     0.40200
H2258       H  0.93253033  0.69339682  0.76375633     0.35090
C2259       C  0.84995905  0.51425881  0.73123379    -0.26640
C2260       C  0.86584669  0.49481299  0.75182495    -0.14710
C2261       C  0.84871200  0.47945251  0.77510033     0.35920
C2262       C  0.81662336  0.48118084  0.77514258    -0.26090
C2263       C  0.80024759  0.50045172  0.75468777    -0.15330
C2264       C  0.81753657  0.51826462  0.73321457     0.37000
N2265       N  0.80276631  0.54170855  0.71498622    -0.89580
H2266       H  0.86311375  0.52761329  0.71461040     0.18120
H2267       H  0.80451666  0.46807583  0.79266362     0.18110
N2268       N  0.86298077  0.46395677  0.80067703    -0.88610
H2269       H  0.81872125  0.55277920  0.70059968     0.35480
H2270       H  0.79414393  0.55846247  0.73013241     0.40580
H2271       H  0.87867249  0.47893540  0.81118633     0.40200
H2272       H  0.87424975  0.44407153  0.79299910     0.35090
C2273       C  0.75799800  0.34013866  0.02461760    -0.26640
C2274       C  0.75171378  0.35509310  0.99640631    -0.14710
C2275       C  0.74399107  0.33676646  0.97046355     0.35920
C2276       C  0.74595276  0.30422989  0.97260552    -0.26090
C2277       C  0.75493126  0.28978373  0.00021762    -0.15330
C2278       C  0.75991533  0.30789664  0.02659104     0.37000
N2279       N  0.76770857  0.29358187  0.05537821    -0.89580
H2280       H  0.76314221  0.35346652  0.04512349     0.18120
H2281       H  0.74159631  0.29012341  0.95243020     0.18110
N2282       N  0.73476369  0.35107266  0.94198419    -0.88610
H2283       H  0.75119272  0.30018380  0.07177340     0.35480
H2284       H  0.78911983  0.30212546  0.06242330     0.40580
H2285       H  0.71403718  0.36282523  0.94615542     0.40200
H2286       H  0.73007440  0.33433782  0.92524703     0.35090
C2287       C  0.76773319  0.64956018  0.02980255    -0.26640
C2288       C  0.75519895  0.63385852  0.00429721    -0.14710
C2289       C  0.74413393  0.65159696  0.97898655     0.35920
C2290       C  0.74808460  0.68387018  0.97896016    -0.26090
C2291       C  0.76217582  0.69904569  0.00387360    -0.15330
C2292       C  0.77141619  0.68166807  0.02966470     0.37000
N2293       N  0.78549946  0.69653687  0.05554936    -0.89580
H2294       H  0.77656470  0.63697455  0.04949261     0.18120
H2295       H  0.74087947  0.69706867  0.95895354     0.18110
N2296       N  0.72881070  0.63786097  0.95303064    -0.88610
H2297       H  0.80752923  0.68705362  0.05856347     0.35480
H2298       H  0.77237118  0.69153056  0.07522616     0.40580
H2299       H  0.72392107  0.61455689  0.95681785     0.40200
H2300       H  0.74365552  0.63936554  0.93400103     0.35090
C2301       C  0.74066549  0.51144866  0.15219144    -0.26640
C2302       C  0.75408331  0.48601509  0.13690430    -0.14710
C2303       C  0.76765598  0.46221380  0.15523740     0.35920
C2304       C  0.76907088  0.46546028  0.18718714    -0.26090
C2305       C  0.75766962  0.49172907  0.20211832    -0.15330
C2306       C  0.74220371  0.51458910  0.18460373     0.37000
N2307       N  0.72885919  0.54117112  0.19943169    -0.89580
H2308       H  0.73012673  0.52968736  0.13860438     0.18120
H2309       H  0.78053439  0.44759963  0.20056852     0.18110
N2310       N  0.78179623  0.43504721  0.14270984    -0.88610
H2311       H  0.71797641  0.55544937  0.18325390     0.35480
H2312       H  0.74664659  0.55414640  0.20908357     0.40580
H2313       H  0.76492578  0.42155210  0.13214391     0.40200
H2314       H  0.79942524  0.44123973  0.12740086     0.35090
C2315       C  0.76043827  0.52982944  0.84318826    -0.26640
C2316       C  0.75306336  0.50211551  0.85868175    -0.14710
C2317       C  0.74471018  0.47603900  0.84075901     0.35920
C2318       C  0.74569173  0.47793986  0.80821144    -0.26090
C2319       C  0.75612608  0.50481638  0.79326504    -0.15330
C2320       C  0.76279816  0.53108487  0.81095982     0.37000
N2321       N  0.77352727  0.55876220  0.79628157    -0.89580
H2322       H  0.76666579  0.55035456  0.85587044     0.18120
H2323       H  0.74097626  0.45754836  0.79452797     0.18110
N2324       N  0.73636154  0.44740855  0.85542033    -0.88610
H2325       H  0.79542938  0.56383916  0.80497423     0.35480
H2326       H  0.75863178  0.57681356  0.80245273     0.40580
H2327       H  0.75664900  0.43726410  0.86370155     0.40200
H2328       H  0.72764575  0.43191112  0.83912902     0.35090
C2329       C  0.24305590  0.51072151  0.65495505    -0.26640
C2330       C  0.26005300  0.48828457  0.63861892    -0.14710
C2331       C  0.27866105  0.46728381  0.65578157     0.35920
C2332       C  0.27834789  0.46818388  0.68791887    -0.26090
C2333       C  0.26157140  0.49051286  0.70433770    -0.15330
C2334       C  0.24422423  0.51248735  0.68749234     0.37000
N2335       N  0.22940564  0.53771782  0.70292797    -0.89580
H2336       H  0.22987562  0.52788397  0.64230592     0.18120
H2337       H  0.29294755  0.45198777  0.70018772     0.18110
N2338       N  0.30029928  0.44640040  0.64181704    -0.88610
H2339       H  0.20593431  0.53723074  0.69734577     0.35480
H2340       H  0.23862879  0.55830274  0.69427399     0.40580
H2341       H  0.31434143  0.45838749  0.62621348     0.40200
H2342       H  0.28850930  0.42844649  0.63106105     0.35090
C2343       C  0.24686699  0.46618312  0.34456876    -0.26640
C2344       C  0.25288483  0.49524059  0.35789841    -0.14710
C2345       C  0.25752607  0.52080093  0.33780507     0.35920
C2346       C  0.26076321  0.51571601  0.30586299    -0.26090
C2347       C  0.25751951  0.48619954  0.29307625    -0.15330
C2348       C  0.24854002  0.46163140  0.31242928     0.37000
N2349       N  0.24164985  0.43192286  0.29977402    -0.89580
H2350       H  0.24192880  0.44649673  0.35926923     0.18120
H2351       H  0.26616317  0.53495425  0.29074971     0.18110
N2352       N  0.25953214  0.55173559  0.34952721    -0.88610
H2353       H  0.21893019  0.42639967  0.30580529     0.35480
H2354       H  0.25623637  0.41566057  0.31015107     0.40580
H2355       H  0.23780641  0.55744525  0.35849994     0.40200
H2356       H  0.26388221  0.56751135  0.33172266     0.35090
C2357       C  0.24562004  0.64843839  0.47495962    -0.26640
C2358       C  0.25520918  0.63358063  0.50228072    -0.14710
C2359       C  0.26598733  0.65213593  0.52704102     0.35920
C2360       C  0.27013069  0.68390409  0.52250122    -0.26090
C2361       C  0.26211069  0.69835546  0.49478474    -0.15330
C2362       C  0.24864098  0.68057257  0.47092149     0.37000
N2363       N  0.23878504  0.69388759  0.44211629    -0.89580
H2364       H  0.23691603  0.63473595  0.45595265     0.18120
H2365       H  0.27974260  0.69777301  0.54095619     0.18110
N2366       N  0.27352571  0.63903680  0.55655165    -0.88610
H2367       H  0.25185386  0.68376176  0.42446061     0.35480
H2368       H  0.24327503  0.71754382  0.44121242     0.40580
H2369       H  0.25263501  0.63292503  0.56705216     0.40200
H2370       H  0.28357342  0.65548830  0.57103653     0.35090
C2371       C  0.26487035  0.30488546  0.52583186    -0.26640
C2372       C  0.25782844  0.28872615  0.49883572    -0.14710
C2373       C  0.24818183  0.30535012  0.47259155     0.35920
C2374       C  0.24672799  0.33783580  0.47355823    -0.26090
C2375       C  0.25549049  0.35429338  0.50014824    -0.15330
C2376       C  0.26374604  0.33710466  0.52699832     0.37000
N2377       N  0.27256805  0.35125608  0.55553091    -0.89580
H2378       H  0.27266263  0.29242043  0.54604640     0.18120
H2379       H  0.24002191  0.35021140  0.45286340     0.18110
N2380       N  0.24153535  0.28950034  0.44440069    -0.88610
H2381       H  0.25479416  0.36585824  0.56302331     0.35480
H2382       H  0.29299482  0.36365072  0.55227612     0.40580
H2383       H  0.25656124  0.29774218  0.42735132     0.40200
H2384       H  0.21903257  0.29529709  0.43783376     0.35090
C2385       C  0.48052908  0.64902631  0.73484539    -0.26640
C2386       C  0.50591165  0.63382645  0.74829091    -0.14710
C2387       C  0.53020586  0.65203333  0.76051340     0.35920
C2388       C  0.52981157  0.68429860  0.75597235    -0.26090
C2389       C  0.50525492  0.69907414  0.74064053    -0.15330
C2390       C  0.48019594  0.68094627  0.73036255     0.37000
N2391       N  0.45434774  0.69400019  0.71434300    -0.89580
H2392       H  0.46141237  0.63587464  0.72562537     0.18120
H2393       H  0.54921984  0.69784647  0.76391109     0.18110
N2394       N  0.55552314  0.63879045  0.77746453    -0.88610
H2395       H  0.46175877  0.70202230  0.69284997     0.35480
H2396       H  0.44534546  0.71240032  0.72713763     0.40580
H2397       H  0.55137622  0.61559024  0.78255020     0.40200
H2398       H  0.55622955  0.64975231  0.79896712     0.35090
C2399       C  0.65916646  0.52027421  0.75591380    -0.26640
C2400       C  0.64554860  0.49138863  0.74996774    -0.14710
C2401       C  0.66529292  0.46560539  0.74502034     0.35920
C2402       C  0.69725843  0.47025917  0.74191628    -0.26090
C2403       C  0.71042639  0.49958500  0.74517638    -0.15330
C2404       C  0.69122453  0.52471464  0.75389560     0.37000
N2405       N  0.70307121  0.55500787  0.76040877    -0.89580
H2406       H  0.64461231  0.54008588  0.76092563     0.18120
H2407       H  0.71214519  0.45081358  0.73644928     0.18110
N2408       N  0.65319635  0.43487235  0.74248181    -0.88610
H2409       H  0.69337778  0.57047035  0.74456046     0.35480
H2410       H  0.72690432  0.55591176  0.75731627     0.40580
H2411       H  0.64433830  0.42888563  0.76417107     0.40200
H2412       H  0.67076752  0.41893426  0.73768109     0.35090
C2413       C  0.35088427  0.47366267  0.76055439    -0.26640
C2414       C  0.36600169  0.50036021  0.74970980    -0.14710
C2415       C  0.34765428  0.52549579  0.73922612     0.35920
C2416       C  0.31550607  0.52271243  0.73817977    -0.26090
C2417       C  0.30073053  0.49542783  0.74698317    -0.15330
C2418       C  0.31843797  0.47084531  0.75922020     0.37000
N2419       N  0.30366550  0.44288888  0.76934539    -0.89580
H2420       H  0.36456968  0.45432552  0.76875803     0.18120
H2421       H  0.30195738  0.54162526  0.72877573     0.18110
N2422       N  0.36118218  0.55336298  0.72771134    -0.88610
H2423       H  0.31996229  0.42723957  0.77795339     0.35480
H2424       H  0.29358026  0.43238588  0.75017602     0.40580
H2425       H  0.35250827  0.57188351  0.74062661     0.40200
H2426       H  0.35429467  0.55635535  0.70476167     0.35090
C2427       C  0.53155528  0.33899602  0.74297944    -0.26640
C2428       C  0.50459606  0.35497332  0.75179169    -0.14710
C2429       C  0.47858486  0.33765464  0.76139052     0.35920
C2430       C  0.47902853  0.30515802  0.75854730    -0.26090
C2431       C  0.50488612  0.28974831  0.74633317    -0.15330
C2432       C  0.53187107  0.30670795  0.73984340     0.37000
N2433       N  0.55948483  0.29111914  0.72977532    -0.89580
H2434       H  0.55206036  0.35178514  0.73656009     0.18120
H2435       H  0.45870523  0.29189021  0.76460727     0.18110
N2436       N  0.45166726  0.35302663  0.77338273    -0.88610
H2437       H  0.57798722  0.30656138  0.72869126     0.35480
H2438       H  0.55585539  0.28371148  0.70714392     0.40580
H2439       H  0.45805272  0.36398818  0.79389140     0.40200
H2440       H  0.43459837  0.33697266  0.77919885     0.35090
C2441       C  0.75360558  0.64321631  0.52673383    -0.26640
C2442       C  0.75831811  0.62958029  0.49760726    -0.14710
C2443       C  0.76425207  0.64916617  0.47202430     0.35920
C2444       C  0.76271517  0.68157068  0.47583638    -0.26090
C2445       C  0.75550375  0.69483374  0.50457673    -0.15330
C2446       C  0.75174293  0.67524675  0.53049167     0.37000
N2447       N  0.74555980  0.68680146  0.56098947    -0.89580
H2448       H  0.74984352  0.62887532  0.54692768     0.18120
H2449       H  0.76593203  0.69658240  0.45603244     0.18110
N2450       N  0.77114283  0.63633459  0.44221145    -0.88610
H2451       H  0.72280010  0.68107929  0.56666824     0.35480
H2452       H  0.74749074  0.71074718  0.56200652     0.40580
H2453       H  0.79210727  0.62443090  0.44401992     0.40200
H2454       H  0.77448338  0.65388165  0.42590968     0.35090
C2455       C  0.74554074  0.52363673  0.65234243    -0.26640
C2456       C  0.75499023  0.49594391  0.63812713    -0.14710
C2457       C  0.76378847  0.47085545  0.65746768     0.35920
C2458       C  0.76213490  0.47391203  0.68987786    -0.26090
C2459       C  0.75119381  0.50128886  0.70357651    -0.15330
C2460       C  0.74310063  0.52628358  0.68439354     0.37000
N2461       N  0.73219256  0.55469384  0.69739041    -0.89580
H2462       H  0.73838968  0.54336429  0.63880630     0.18120
H2463       H  0.76807107  0.45436063  0.70439201     0.18110
N2464       N  0.77411937  0.44195901  0.64501463    -0.88610
H2465       H  0.71020052  0.55916990  0.68849618     0.35480
H2466       H  0.74686548  0.57244908  0.69013431     0.40580
H2467       H  0.79252413  0.44621328  0.62992955     0.40200
H2468       H  0.75605564  0.43192200  0.63268786     0.35090
C2469       C  0.76878202  0.33328345  0.52220635    -0.26640
C2470       C  0.75425087  0.34895662  0.49778936    -0.14710
C2471       C  0.73921464  0.33141613  0.47459518     0.35920
C2472       C  0.73831852  0.29908739  0.47710636    -0.26090
C2473       C  0.75096204  0.28366534  0.50259052    -0.15330
C2474       C  0.76708918  0.30092389  0.52492699     0.37000
N2475       N  0.77985826  0.28607241  0.55152461    -0.89580
H2476       H  0.78026599  0.34634891  0.54013567     0.18120
H2477       H  0.72592127  0.28585358  0.45992060     0.18110
N2478       N  0.72304938  0.34627754  0.44964392    -0.88610
H2479       H  0.76956561  0.29565689  0.57119207     0.35480
H2480       H  0.80344244  0.29112444  0.55221123     0.40580
H2481       H  0.70345567  0.35692663  0.45905908     0.40200
H2482       H  0.71486875  0.32997149  0.43386902     0.35090
C2483       C  0.77140476  0.50700661  0.34166966    -0.26640
C2484       C  0.75475566  0.48360415  0.35693282    -0.14710
C2485       C  0.73698971  0.46287923  0.33877045     0.35920
C2486       C  0.73613241  0.46630506  0.30682156    -0.26090
C2487       C  0.75136708  0.49049090  0.29168379    -0.15330
C2488       C  0.76979703  0.51088153  0.30928461     0.37000
N2489       N  0.78589013  0.53597631  0.29464521    -0.89580
H2490       H  0.78463970  0.52323406  0.35528905     0.18120
H2491       H  0.72204063  0.45040881  0.29366834     0.18110
N2492       N  0.71770497  0.43928699  0.35162536    -0.88610
H2493       H  0.79846029  0.54859893  0.31086846     0.35480
H2494       H  0.76955856  0.55109805  0.28532981     0.40580
H2495       H  0.70255427  0.44897992  0.36779456     0.40200
H2496       H  0.73148783  0.42210880  0.36144996     0.35090
C2497       C  0.66378780  0.74942614  0.52396351    -0.26640
C2498       C  0.64924485  0.74129009  0.49607229    -0.14710
C2499       C  0.66828149  0.73373601  0.47032330     0.35920
C2500       C  0.70026433  0.73121550  0.47409463    -0.26090
C2501       C  0.71426602  0.73644132  0.50273082    -0.15330
C2502       C  0.69598507  0.74714035  0.52745927     0.37000
N2503       N  0.70977667  0.75497083  0.55638273    -0.89580
H2504       H  0.65007645  0.75657294  0.54366882     0.18120
H2505       H  0.71429010  0.72417655  0.45455036     0.18110
N2506       N  0.65615113  0.72754993  0.44023032    -0.88610
H2507       H  0.69962598  0.74131392  0.57356237     0.35480
H2508       H  0.70445717  0.77806943  0.56116774     0.40580
H2509       H  0.64249516  0.74628228  0.43331486     0.40200
H2510       H  0.64298806  0.70737158  0.44098807     0.35090
C2511       C  0.48847691  0.75821754  0.65074329    -0.26640
C2512       C  0.51208206  0.74298293  0.63438772    -0.14710
C2513       C  0.53573765  0.72769499  0.65124154     0.35920
C2514       C  0.53447068  0.72724795  0.68358786    -0.26090
C2515       C  0.50995217  0.74083567  0.69980622    -0.15330
C2516       C  0.48708322  0.75712062  0.68321167     0.37000
N2517       N  0.46115567  0.77044450  0.69889445    -0.89580
H2518       H  0.47015997  0.76980153  0.63820031     0.18120
H2519       H  0.55193797  0.71458571  0.69632704     0.18110
N2520       N  0.55989717  0.71081668  0.63574367    -0.88610
H2521       H  0.44108845  0.76020325  0.69035072     0.35480
H2522       H  0.46033385  0.79395607  0.69328903     0.40580
H2523       H  0.54985710  0.69118398  0.62595027     0.40200
H2524       H  0.57623805  0.70264291  0.65153307     0.35090
C2525       C  0.35390741  0.73039259  0.46608530    -0.26640
C2526       C  0.36935112  0.74442058  0.49093226    -0.14710
C2527       C  0.35136783  0.75721741  0.51528118     0.35920
C2528       C  0.31900255  0.75391060  0.51489665    -0.26090
C2529       C  0.30404135  0.73865315  0.49052694    -0.15330
C2530       C  0.32181027  0.72738398  0.46575945     0.37000
N2531       N  0.30733479  0.71224340  0.44026218    -0.89580
H2532       H  0.36664417  0.72006943  0.44720137     0.18120
H2533       H  0.30553741  0.76264981  0.53414431     0.18110
N2534       N  0.36491308  0.77382722  0.54053992    -0.88610
H2535       H  0.31636727  0.68985086  0.43862214     0.35480
H2536       H  0.31311980  0.72420104  0.42006388     0.40580
H2537       H  0.38849918  0.77741828  0.53721158     0.40200
H2538       H  0.36221806  0.76041553  0.56047023     0.35090
C2539       C  0.48203521  0.72785563  0.34100858    -0.26640
C2540       C  0.50724862  0.74214526  0.35553461    -0.14710
C2541       C  0.53091236  0.75502936  0.33678042     0.35920
C2542       C  0.52994559  0.75071405  0.30455414    -0.26090
C2543       C  0.50530387  0.73512649  0.29044444    -0.15330
C2544       C  0.48100427  0.72408812  0.30899135     0.37000
N2545       N  0.45526587  0.70853220  0.29541188    -0.89580
H2546       H  0.46344086  0.71801977  0.35459039     0.18120
H2547       H  0.54888550  0.75912948  0.29051319     0.18110
N2548       N  0.55614090  0.77242530  0.34941042    -0.88610
H2549       H  0.43512587  0.72046203  0.30152235     0.35480
H2550       H  0.45402577  0.68631215  0.30487948     0.40580
H2551       H  0.55259773  0.77697575  0.37280740     0.40200
H2552       H  0.55600681  0.79413536  0.33874255     0.35090
C2553       C  0.65980217  0.51968377  0.25661183    -0.26640
C2554       C  0.64497465  0.49349657  0.24439400    -0.14710
C2555       C  0.66357857  0.46872957  0.23339300     0.35920
C2556       C  0.69590750  0.47018872  0.23668610    -0.26090
C2557       C  0.71019238  0.49576484  0.25063645    -0.15330
C2558       C  0.69168214  0.52084884  0.26026279     0.37000
N2559       N  0.70445670  0.54771142  0.27464109    -0.89580
H2560       H  0.64667815  0.53900895  0.26552293     0.18120
H2561       H  0.70990867  0.45076479  0.22922128     0.18110
N2562       N  0.65071588  0.44192498  0.21874603    -0.88610
H2563       H  0.71463264  0.54125283  0.29549945     0.35480
H2564       H  0.72121446  0.55712308  0.26004998     0.40580
H2565       H  0.62710798  0.44446435  0.21471369     0.40200
H2566       H  0.65370014  0.42315595  0.23369955     0.35090
C2567       C  0.34999315  0.45775491  0.25394629    -0.26640
C2568       C  0.36496942  0.48626618  0.24953917    -0.14710
C2569       C  0.34647081  0.51295976  0.24477251     0.35920
C2570       C  0.31394545  0.51048673  0.24583067    -0.26090
C2571       C  0.29942494  0.48219494  0.25226280    -0.15330
C2572       C  0.31785610  0.45535380  0.25563781     0.37000
N2573       N  0.30500460  0.42535375  0.26192953    -0.89580
H2574       H  0.36308193  0.43674955  0.25725213     0.18120
H2575       H  0.29984402  0.53105724  0.24321581     0.18110
N2576       N  0.36050331  0.54259213  0.23957902    -0.88610
H2577       H  0.31357746  0.40998973  0.24533953     0.35480
H2578       H  0.28121258  0.42544315  0.25869346     0.40580
H2579       H  0.36936375  0.55010386  0.26069493     0.40200
H2580       H  0.34377519  0.55893006  0.23338163     0.35090
C2581       C  0.47522043  0.33589141  0.26114606    -0.26640
C2582       C  0.50141486  0.34960312  0.24764969    -0.14710
C2583       C  0.52432968  0.33000967  0.23458034     0.35920
C2584       C  0.52179090  0.29773234  0.23828558    -0.26090
C2585       C  0.49627200  0.28433755  0.25332446    -0.15330
C2586       C  0.47232236  0.30389416  0.26412695     0.37000
N2587       N  0.44476236  0.29236495  0.27861569    -0.89580
H2588       H  0.45698901  0.35015026  0.27079330     0.18120
H2589       H  0.54028757  0.28301304  0.22992187     0.18110
N2590       N  0.55035247  0.34180147  0.21759641    -0.88610
H2591       H  0.44577834  0.29796838  0.30207755     0.35480
H2592       H  0.44308905  0.26845955  0.27693984     0.40580
H2593       H  0.54776619  0.36536895  0.21316199     0.40200
H2594       H  0.55015794  0.33138689  0.19581032     0.35090
C2595       C  0.48362233  0.64570371  0.23401650    -0.26640
C2596       C  0.50922358  0.62918866  0.24532394    -0.14710
C2597       C  0.53506908  0.64599268  0.25634841     0.35920
C2598       C  0.53371696  0.67835243  0.25747051    -0.26090
C2599       C  0.50729568  0.69461389  0.24837452    -0.15330
C2600       C  0.48213375  0.67811293  0.23562220     0.37000
N2601       N  0.45391949  0.69293374  0.22626021    -0.89580
H2602       H  0.46380044  0.63324316  0.22532828     0.18120
H2603       H  0.55291714  0.69105122  0.26720013     0.18110
N2604       N  0.56190000  0.63044227  0.26831941    -0.88610
H2605       H  0.45197948  0.69036529  0.20233552     0.35480
H2606       H  0.45407547  0.71656173  0.23091046     0.40580
H2607       H  0.55585744  0.62129888  0.28987708     0.40200
H2608       H  0.57966993  0.64618490  0.27254862     0.35090
C2609       C  0.47584456  0.25526296  0.65519470    -0.26640
C2610       C  0.50070669  0.24105022  0.63971994    -0.14710
C2611       C  0.52469208  0.22759089  0.65764417     0.35920
C2612       C  0.52486345  0.23201142  0.68987001    -0.26090
C2613       C  0.50111239  0.24845268  0.70481200    -0.15330
C2614       C  0.47586581  0.25898573  0.68731132     0.37000
N2615       N  0.45024374  0.27393547  0.70207854    -0.89580
H2616       H  0.45680726  0.26508917  0.64226262     0.18120
H2617       H  0.54406663  0.22314605  0.70324649     0.18110
N2618       N  0.54918333  0.20955840  0.64411733    -0.88610
H2619       H  0.43027343  0.26146058  0.69693105     0.35480
H2620       H  0.44791791  0.29608438  0.69263350     0.40580
H2621       H  0.54465393  0.20484771  0.62094885     0.40200
H2622       H  0.54911001  0.18794341  0.65497676     0.35090
C2623       C  0.48235098  0.22597893  0.34492600    -0.26640
C2624       C  0.50708176  0.24066552  0.35983196    -0.14710
C2625       C  0.53017597  0.25505495  0.34153949     0.35920
C2626       C  0.52702717  0.25567139  0.30927247    -0.26090
C2627       C  0.50119494  0.24299957  0.29459239    -0.15330
C2628       C  0.47915302  0.22705257  0.31260079     0.37000
N2629       N  0.45276186  0.21317031  0.29849575    -0.89580
H2630       H  0.46461456  0.21471791  0.35856493     0.18120
H2631       H  0.54414527  0.26767380  0.29547552     0.18110
N2632       N  0.55576874  0.27075677  0.35557523    -0.88610
H2633       H  0.43291233  0.22287995  0.30834815     0.35480
H2634       H  0.45295334  0.18961838  0.30397765     0.40580
H2635       H  0.54705693  0.29075542  0.36604333     0.40200
H2636       H  0.57146360  0.27829620  0.33879610     0.35090
C2637       C  0.31570158  0.25685947  0.47035771    -0.26640
C2638       C  0.29904584  0.24746056  0.49644326    -0.14710
C2639       C  0.31501415  0.23441312  0.52171783     0.35920
C2640       C  0.34750223  0.23230403  0.52068684    -0.26090
C2641       C  0.36436503  0.24303332  0.49503057    -0.15330
C2642       C  0.34796313  0.25431693  0.46898219     0.37000
N2643       N  0.36395401  0.26455740  0.44167695    -0.89580
H2644       H  0.30337113  0.26683612  0.45100694     0.18120
H2645       H  0.35979767  0.22330462  0.54052776     0.18110
N2646       N  0.29844388  0.22417858  0.54863651    -0.88610
H2647       H  0.34852721  0.27378529  0.42554579     0.35480
H2648       H  0.37378653  0.24502573  0.43133228     0.40580
H2649       H  0.28821838  0.24343200  0.55900834     0.40200
H2650       H  0.31359192  0.21474401  0.56490312     0.35090
C2651       C  0.65804879  0.25092859  0.53089095    -0.26640
C2652       C  0.64347572  0.23784178  0.50504657    -0.14710
C2653       C  0.66223716  0.22493445  0.48134901     0.35920
C2654       C  0.69452535  0.22862235  0.48266161    -0.26090
C2655       C  0.70871051  0.24366105  0.50762547    -0.15330
C2656       C  0.69002202  0.25439375  0.53219698     0.37000
N2657       N  0.70274705  0.26943010  0.55870977    -0.89580
H2658       H  0.64445755  0.26050154  0.54964692     0.18120
H2659       H  0.70859031  0.22018927  0.46370960     0.18110
N2660       N  0.64953676  0.20812071  0.45574402    -0.88610
H2661       H  0.71225442  0.29047345  0.55183736     0.35480
H2662       H  0.72009158  0.25545033  0.56806249     0.40580
H2663       H  0.62615864  0.20356209  0.45931467     0.40200
H2664       H  0.66010286  0.18634729  0.45541541     0.35090
loop_ 
_geom_bond_atom_site_label_1 
_geom_bond_atom_site_label_2 
_geom_bond_distance 
_geom_bond_site_symmetry_2 
_ccdc_geom_bond_type 
C1           N19   1.349       .  A
C1           C38   1.452       .  S
C1          C160   1.457       .  S
N2           N19   1.324       .  A
N2           N24   1.318       .  A
N2          Co39   2.085       .  S
C3           N28   1.341       .  A
C3           C41   1.465       .  S
C3           H48   1.082       .  S
H4           C45   1.082       .  S
C5           N29   1.338       .  A
C5            C9   1.454       .  S
C5           H34   1.082       .  S
Co6          N24   2.064       .  S
Co6          N14   2.082       .  S
Co6          N46   2.091       .  S
Co6          N22   2.088       .  S
Co6         Cl50   2.451       .  S
N7           C45   1.338       .  A
N7           N14   1.318       .  A
N7           Co8   2.064       .  S
Co8          N11   2.080       .  S
Co8          N28   2.088       .  S
Co8          N15   2.080       .  S
Co8         Cl50   2.440       .  S
C9           N47   1.348       .  A
C9          C266   1.458       .  S
N10          N17   1.318       .  A
N10          N40   1.325       .  A
N10         Co43   2.084       .  S
N11          N29   1.318       .  A
N11          N47   1.324       .  A
N12          C41   1.352       .  A
N12          N22   1.323       .  A
H13          C38   1.082       .  S
N14          N35   1.324       .  A
N15          N33   1.321       .  A
N15          N20   1.321       .  A
C16          N20   1.349       .  A
C16          C44   1.469       .  S
C16        C2641   1.492       .  S
N17          C32   1.338       .  A
N17         Co39   2.069       .  S
C18          N46   1.342       .  A
C18          C21   1.470       .  S
C18          H52   1.081       .  S
C21          N42   1.353       .  A
C21        C2652   1.493       .  S
N22          N28   1.321       .  A
N23          C49   1.341       .  A
N23          N25   1.321       .  A
N23         Co39   2.089       .  S
N24          C38   1.338       .  A
N25          N53   1.324       .  A
N25         Co43   2.091       .  S
H26          C49   1.082       .  S
H27          C44   1.082       .  S
N29         Co43   2.070       .  S
N30          N42   1.322       .  A
N30          N46   1.321       .  A
N30         Co39   2.089       .  S
C31          N35   1.349       .  A
C31          C45   1.451       .  S
C31         C104   1.457       .  S
C32          C51   1.453       .  S
C32          H36   1.082       .  S
N33          C44   1.343       .  A
N33         Co43   2.094       .  S
C37          N53   1.354       .  A
C37          C49   1.467       .  S
C37        C2610   1.492       .  S
Co39        Cl50   2.441       .  S
N40          C51   1.349       .  A
C41        C2624   1.490       .  S
Co43        Cl50   2.450       .  S
C51         C263   1.459       .  S
C54          N72   1.346       .  A
C54          C91   1.457       .  S
C54         C210   1.459       .  S
N55          N72   1.323       .  A
N55          N77   1.319       .  A
N55         Co92   2.069       .  S
C56          N81   1.343       .  A
C56          C94   1.470       .  S
C56         H101   1.082       .  S
H57          C98   1.082       .  S
C58          N82   1.340       .  A
C58          C62   1.457       .  S
C58          H87   1.082       .  S
Co59         N77   2.084       .  S
Co59         N67   2.082       .  S
Co59         N99   2.078       .  S
Co59         N75   2.082       .  S
Co59       Cl103   2.420       .  S
N60          C98   1.339       .  A
N60          N67   1.318       .  A
N60         Co61   2.070       .  S
Co61         N64   2.066       .  S
Co61         N81   2.089       .  S
Co61         N68   2.094       .  S
Co61       Cl103   2.467       .  S
C62         N100   1.345       .  A
C62         C296   1.456       .  S
N63          N70   1.318       .  A
N63          N93   1.323       .  A
N63         Co96   2.081       .  S
N64          N82   1.319       .  A
N64         N100   1.322       .  A
N65          C94   1.348       .  A
N65          N75   1.321       .  A
H66          C91   1.082       .  S
N67          N88   1.324       .  A
N68          N86   1.320       .  A
N68          N73   1.327       .  A
C69          N73   1.356       .  A
C69          C97   1.468       .  S
C69        C2568   1.500       .  S
N70          C85   1.339       .  A
N70         Co92   2.067       .  S
C71          N99   1.334       .  A
C71          C74   1.466       .  S
C71         H105   1.081       .  S
C74          N95   1.358       .  A
C74        C2554   1.494       .  S
N75          N81   1.320       .  A
N76         C102   1.344       .  A
N76          N78   1.321       .  A
N76         Co92   2.093       .  S
N77          C91   1.341       .  A
N78         N106   1.321       .  A
N78         Co96   2.088       .  S
H79         C102   1.081       .  S
H80          C97   1.080       .  S
N82         Co96   2.081       .  S
N83          N95   1.327       .  A
N83          N99   1.319       .  A
N83         Co92   2.095       .  S
C84          N88   1.349       .  A
C84          C98   1.453       .  S
C84         C107   1.459       .  S
C85         C104   1.453       .  S
C85          H89   1.082       .  S
N86          C97   1.335       .  A
N86         Co96   2.081       .  S
C90         N106   1.352       .  A
C90         C102   1.471       .  S
C90        C2582   1.494       .  S
Co92       Cl103   2.471       .  S
N93         C104   1.348       .  A
C94        C2596   1.492       .  S
Co96       Cl103   2.420       .  S
C107        N125   1.349       .  A
C107        C144   1.453       .  S
N108        N125   1.324       .  A
N108        N130   1.318       .  A
N108       Co145   2.083       .  S
C109        N134   1.339       .  A
C109        C147   1.467       .  S
C109        H154   1.081       .  S
H110        C151   1.082       .  S
C111        N135   1.339       .  A
C111        C115   1.454       .  S
C111        H140   1.082       .  S
Co112       N130   2.069       .  S
Co112       N120   2.074       .  S
Co112       N152   2.085       .  S
Co112       N128   2.090       .  S
Co112      Cl156   2.457       .  S
N113        C151   1.339       .  A
N113        N120   1.318       .  A
N113       Co114   2.070       .  S
Co114       N117   2.080       .  S
Co114       N134   2.082       .  S
Co114       N121   2.081       .  S
Co114      Cl156   2.431       .  S
C115        N153   1.347       .  A
C115        C243   1.458       .  S
N116        N123   1.319       .  A
N116        N146   1.324       .  A
N116       Co149   2.076       .  S
N117        N135   1.318       .  A
N117        N153   1.324       .  A
N118        C147   1.353       .  A
N118        N128   1.324       .  A
H119        C144   1.082       .  S
N120        N141   1.322       .  A
N121        N139   1.321       .  A
N121        N126   1.320       .  A
C122        N126   1.348       .  A
C122        C150   1.469       .  S
C122       C2512   1.489       .  S
N123        C138   1.341       .  A
N123       Co145   2.081       .  S
C124        N152   1.342       .  A
C124        C127   1.469       .  S
C124        H158   1.082       .  S
C127        N148   1.352       .  A
C127       C2540   1.489       .  S
N128        N134   1.319       .  A
N129        C155   1.336       .  A
N129        N131   1.320       .  A
N129       Co145   2.081       .  S
N130        C144   1.339       .  A
N131        N159   1.327       .  A
N131       Co149   2.095       .  S
H132        C155   1.081       .  S
H133        C150   1.082       .  S
N135       Co149   2.071       .  S
N136        N148   1.321       .  A
N136        N152   1.320       .  A
N136       Co145   2.086       .  S
C137        N141   1.346       .  A
C137        C151   1.454       .  S
C137        C168   1.454       .  S
C138        C157   1.456       .  S
C138        H142   1.082       .  S
N139        C150   1.344       .  A
N139       Co149   2.095       .  S
C143        N159   1.356       .  A
C143        C155   1.466       .  S
C143       C2526   1.492       .  S
Co145      Cl156   2.427       .  S
N146        C157   1.347       .  A
C147       C2498   1.496       .  S
Co149      Cl156   2.463       .  S
C157        C274   1.460       .  S
C160        N178   1.348       .  A
C160        C197   1.453       .  S
N161        N178   1.323       .  A
N161        N183   1.318       .  A
N161       Co198   2.080       .  S
C162        N187   1.335       .  A
C162        C200   1.469       .  S
C162        H207   1.081       .  S
H163        C204   1.082       .  S
C164        N188   1.338       .  A
C164        C168   1.453       .  S
C164        H193   1.082       .  S
Co165       N183   2.069       .  S
Co165       N173   2.068       .  S
Co165       N205   2.090       .  S
Co165       N181   2.095       .  S
Co165      Cl209   2.466       .  S
N166        C204   1.341       .  A
N166        N173   1.318       .  A
N166       Co167   2.082       .  S
Co167       N170   2.077       .  S
Co167       N187   2.085       .  S
Co167       N174   2.090       .  S
Co167      Cl209   2.424       .  S
C168        N206   1.347       .  A
N169        N176   1.318       .  A
N169        N199   1.323       .  A
N169       Co202   2.068       .  S
N170        N188   1.318       .  A
N170        N206   1.323       .  A
N171        C200   1.356       .  A
N171        N181   1.327       .  A
H172        C197   1.082       .  S
N173        N194   1.323       .  A
N174        N192   1.321       .  A
N174        N179   1.321       .  A
C175        N179   1.353       .  A
C175        C203   1.472       .  S
C175       C2442   1.497       .  S
N176        C191   1.341       .  A
N176       Co198   2.084       .  S
C177        N205   1.343       .  A
C177        C180   1.467       .  S
C177        H211   1.082       .  S
C180        N201   1.349       .  A
C180       C2470   1.489       .  S
N181        N187   1.320       .  A
N182        C208   1.336       .  A
N182        N184   1.319       .  A
N182       Co198   2.082       .  S
N183        C197   1.339       .  A
N184        N212   1.326       .  A
N184       Co202   2.093       .  S
H185        C208   1.078       .  S
H186        C203   1.080       .  S
N188       Co202   2.066       .  S
N189        N201   1.321       .  A
N189        N205   1.321       .  A
N189       Co198   2.083       .  S
C190        N194   1.346       .  A
C190        C204   1.457       .  S
C190        C221   1.458       .  S
C191        C210   1.458       .  S
C191        H195   1.082       .  S
N192        C203   1.344       .  A
N192       Co202   2.090       .  S
C196        N212   1.355       .  A
C196        C208   1.465       .  S
C196       C2484   1.492       .  S
Co198      Cl209   2.424       .  S
N199        C210   1.345       .  A
C200       C2456   1.499       .  S
Co202      Cl209   2.465       .  S
C213        N231   1.344       .  A
C213        C250   1.458       .  S
C213        C316   1.457       .  S
N214        N231   1.322       .  A
N214        N236   1.319       .  A
N214       Co251   2.066       .  S
C215        N240   1.343       .  A
C215        C253   1.470       .  S
C215        H260   1.082       .  S
H216        C257   1.082       .  S
C217        N241   1.340       .  A
C217        C221   1.457       .  S
C217        H246   1.082       .  S
Co218       N236   2.085       .  S
Co218       N226   2.078       .  S
Co218       N258   2.078       .  S
Co218       N234   2.089       .  S
Co218      Cl262   2.429       .  S
N219        C257   1.339       .  A
N219        N226   1.318       .  A
N219       Co220   2.072       .  S
Co220       N223   2.072       .  S
Co220       N240   2.088       .  S
Co220       N227   2.094       .  S
Co220      Cl262   2.459       .  S
C221        N259   1.346       .  A
N222        N229   1.318       .  A
N222        N252   1.323       .  A
N222       Co255   2.079       .  S
N223        N241   1.319       .  A
N223        N259   1.323       .  A
N224        C253   1.353       .  A
N224        N234   1.322       .  A
H225        C250   1.082       .  S
N226        N247   1.324       .  A
N227        N245   1.319       .  A
N227        N232   1.325       .  A
C228        N232   1.356       .  A
C228        C256   1.471       .  S
C228       C2400   1.499       .  S
N229        C244   1.340       .  A
N229       Co251   2.074       .  S
C230        N258   1.336       .  A
C230        C233   1.467       .  S
C230        H264   1.079       .  S
C233        N254   1.357       .  A
C233       C2414   1.496       .  S
N234        N240   1.320       .  A
N235        C261   1.341       .  A
N235        N237   1.321       .  A
N235       Co251   2.087       .  S
N236        C250   1.341       .  A
N237        N265   1.323       .  A
N237       Co255   2.094       .  S
H238        C261   1.081       .  S
H239        C256   1.078       .  S
N241       Co255   2.081       .  S
N242        N254   1.326       .  A
N242        N258   1.319       .  A
N242       Co251   2.096       .  S
C243        N247   1.347       .  A
C243        C257   1.455       .  S
C244        C263   1.455       .  S
C244        H248   1.082       .  S
N245        C256   1.338       .  A
N245       Co255   2.083       .  S
C249        N265   1.354       .  A
C249        C261   1.469       .  S
C249       C2428   1.494       .  S
Co251      Cl262   2.461       .  S
N252        C263   1.348       .  A
C253       C2386   1.492       .  S
Co255      Cl262   2.434       .  S
C266        N284   1.346       .  A
C266        C303   1.456       .  S
N267        N284   1.322       .  A
N267        N289   1.318       .  A
N267       Co304   2.072       .  S
C268        N293   1.338       .  A
C268        C306   1.472       .  S
C268        H313   1.078       .  S
H269        C310   1.082       .  S
C270        N294   1.341       .  A
C270        C274   1.456       .  S
C270        H299   1.082       .  S
Co271       N289   2.076       .  S
Co271       N279   2.068       .  S
Co271       N311   2.088       .  S
Co271       N287   2.096       .  S
Co271      Cl315   2.454       .  S
N272        C310   1.340       .  A
N272        N279   1.319       .  A
N272       Co273   2.082       .  S
Co273       N276   2.073       .  S
Co273       N293   2.089       .  S
Co273       N280   2.100       .  S
Co273      Cl315   2.443       .  S
C274        N312   1.347       .  A
N275        N282   1.318       .  A
N275        N305   1.322       .  A
N275       Co308   2.059       .  S
N276        N294   1.318       .  A
N276        N312   1.324       .  A
N277        C306   1.356       .  A
N277        N287   1.325       .  A
H278        C303   1.082       .  S
N279        N300   1.322       .  A
N280        N298   1.320       .  A
N280        N285   1.326       .  A
C281        N285   1.358       .  A
C281        C309   1.468       .  S
C281       C2358   1.496       .  S
N282        C297   1.341       .  A
N282       Co304   2.087       .  S
C283        N311   1.343       .  A
C283        C286   1.471       .  S
C283        H317   1.081       .  S
C286        N307   1.348       .  A
C286       C2375   1.494       .  S
N287        N293   1.321       .  A
N288        C314   1.335       .  A
N288        N290   1.317       .  A
N288       Co304   2.074       .  S
N289        C303   1.341       .  A
N290        N318   1.326       .  A
N290       Co308   2.092       .  S
H291        C314   1.078       .  S
H292        C309   1.077       .  S
N294       Co308   2.081       .  S
N295        N307   1.320       .  A
N295        N311   1.319       .  A
N295       Co304   2.080       .  S
C296        N300   1.344       .  A
C296        C310   1.457       .  S
C297        C316   1.459       .  S
C297        H301   1.082       .  S
N298        C309   1.333       .  A
N298       Co308   2.076       .  S
C302        N318   1.356       .  A
C302        C314   1.463       .  S
C302       C2330   1.491       .  S
Co304      Cl315   2.429       .  S
N305        C316   1.344       .  A
C306       C2344   1.501       .  S
Co308      Cl315   2.451       .  S
C319        N337   1.346   1_554  A
C319        C356   1.459       .  S
C319        C584   1.462   1_554  S
N320        N337   1.324       .  A
N320        N342   1.319   1_556  A
N320       Co357   2.071       .  S
C321        N346   1.334       .  A
C321        C359   1.464       .  S
C321        H366   1.077       .  S
H322        C363   1.082       .  S
C323        N347   1.340       .  A
C323        C327   1.457       .  S
C323        H352   1.082       .  S
Co324       N342   2.088       .  S
Co324       N332   2.064       .  S
Co324       N364   2.080       .  S
Co324       N340   2.098       .  S
Co324      Cl368   2.455   1_554  S
N325        C363   1.342       .  A
N325        N332   1.318       .  A
N325       Co326   2.089       .  S
Co326       N329   2.067       .  S
Co326       N346   2.069       .  S
Co326       N333   2.086       .  S
Co326      Cl368   2.427   1_554  S
C327        N365   1.345   1_556  A
C327        C531   1.455       .  S
N328        N335   1.319       .  A
N328        N358   1.322       .  A
N328       Co361   2.064       .  S
N329        N347   1.318   1_554  A
N329        N365   1.322       .  A
N330        C359   1.358       .  A
N330        N340   1.326       .  A
H331        C356   1.082       .  S
N332        N353   1.323       .  A
N333        N351   1.319   1_554  A
N333        N338   1.322       .  A
C334        N338   1.352   1_556  A
C334        C362   1.472       .  S
C334       C2274   1.494       .  S
N335        C350   1.341       .  A
N335       Co357   2.086       .  S
C336        N364   1.337       .  A
C336        C339   1.467       .  S
C336        H370   1.081       .  S
C339        N360   1.355   1_554  A
C339       C2288   1.491       .  S
N340        N346   1.317       .  A
N341        C367   1.337       .  A
N341        N343   1.321       .  A
N341       Co357   2.083       .  S
N342        C356   1.342       .  A
N343        N371   1.326       .  A
N343       Co361   2.099       .  S
H344        C367   1.081       .  S
H345        C362   1.080       .  S
N347       Co361   2.079       .  S
N348        N360   1.325       .  A
N348        N364   1.320   1_556  A
N348       Co357   2.096       .  S
C349        N353   1.345       .  A
C349        C363   1.458       .  S
C349        C528   1.460       .  S
C350        C369   1.458       .  S
C350        H354   1.082       .  S
N351        C362   1.343       .  A
N351       Co361   2.087       .  S
C355        N371   1.356       .  A
C355        C367   1.468       .  S
C355       C2316   1.497       .  S
Co357      Cl368   2.439       .  S
N358        C369   1.344       .  A
C359       C2302   1.494       .  S
Co361      Cl368   2.459       .  S
C369        C422   1.457       .  S
C372        N390   1.346   1_455  A
C372        C409   1.458       .  S
C372        C581   1.461       .  S
N373        N390   1.323       .  A
N373        N395   1.319   1_655  A
N373       Co410   2.069       .  S
C374        N399   1.338       .  A
C374        C412   1.469       .  S
C374        H419   1.081       .  S
H375        C416   1.082       .  S
C376        N400   1.340       .  A
C376        C380   1.456   1_655  S
C376        H405   1.082       .  S
Co377       N395   2.088       .  S
Co377       N385   2.065       .  S
Co377       N417   2.079       .  S
Co377       N393   2.092       .  S
Co377      Cl421   2.441       .  S
N378        C416   1.340       .  A
N378        N385   1.319       .  A
N378       Co379   2.085       .  S
Co379       N382   2.067       .  S
Co379       N399   2.085       .  S
Co379       N386   2.096       .  S
Co379      Cl421   2.448       .  S
C380        N418   1.346       .  A
C380        C614   1.456       .  S
N381        N388   1.318       .  A
N381        N411   1.322       .  A
N381       Co414   2.062       .  S
N382        N400   1.318   1_455  A
N382        N418   1.323       .  A
N383        C412   1.354       .  A
N383        N393   1.326       .  A
H384        C409   1.082       .  S
N385        N406   1.323       .  A
N386        N404   1.320   1_455  A
N386        N391   1.326       .  A
C387        N391   1.356       .  A
C387        C415   1.466   1_455  S
C387       C2249   1.492       .  S
N388        C403   1.341       .  A
N388       Co410   2.086       .  S
C389        N417   1.336       .  A
C389        C392   1.464       .  S
C389        H423   1.079       .  S
C392        N413   1.355   1_455  A
C392       C2232   1.490       .  S
N393        N399   1.320       .  A
N394        C420   1.339       .  A
N394        N396   1.321       .  A
N394       Co410   2.091       .  S
N395        C409   1.342       .  A
N396        N424   1.324       .  A
N396       Co414   2.086       .  S
H397        C420   1.081       .  S
H398        C415   1.081       .  S
N400       Co414   2.080       .  S
N401        N413   1.325       .  A
N401        N417   1.320   1_655  A
N401       Co410   2.095       .  S
C402        N406   1.345       .  A
C402        C416   1.458       .  S
C402        C475   1.457       .  S
C403        C422   1.458       .  S
C403        H407   1.082       .  S
N404        C415   1.336       .  A
N404       Co414   2.077       .  S
C408        N424   1.351       .  A
C408        C420   1.467       .  S
C408       C2260   1.486       .  S
Co410      Cl421   2.450   1_655  S
N411        C422   1.344       .  A
C412       C2218   1.493       .  S
Co414      Cl421   2.441   1_655  S
C425        N443   1.345       .  A
C425        C462   1.459   1_556  S
C425        C539   1.459       .  S
N426        N443   1.322       .  A
N426        N448   1.319   1_556  A
N426       Co463   2.064       .  S
C427        N452   1.336       .  A
C427        C465   1.464       .  S
C427        H472   1.080       .  S
H428        C469   1.082       .  S
C429        N453   1.339       .  A
C429        C433   1.456       .  S
C429        H458   1.082       .  S
Co430       N448   2.090       .  S
Co430       N438   2.065       .  S
Co430       N470   2.081       .  S
Co430       N446   2.097       .  S
Co430      Cl474   2.447   1_554  S
N431        C469   1.341       .  A
N431        N438   1.318       .  A
N431       Co432   2.084       .  S
Co432       N435   2.065       .  S
Co432       N452   2.071       .  S
Co432       N439   2.088       .  S
Co432      Cl474   2.431   1_554  S
C433        N471   1.344   1_556  A
C433        C592   1.453       .  S
N434        N441   1.318       .  A
N434        N464   1.322       .  A
N434       Co467   2.064       .  S
N435        N453   1.318   1_554  A
N435        N471   1.322       .  A
N436        C465   1.356       .  A
N436        N446   1.326       .  A
H437        C462   1.082       .  S
N438        N459   1.323       .  A
N439        N457   1.320   1_554  A
N439        N444   1.321       .  A
C440        N444   1.350   1_556  A
C440        C468   1.468       .  S
C440       C2190   1.494       .  S
N441        C456   1.342       .  A
N441       Co463   2.086       .  S
C442        N470   1.336       .  A
C442        C445   1.465       .  S
C442        H476   1.078       .  S
C445        N466   1.354   1_554  A
C445       C2204   1.491       .  S
N446        N452   1.319       .  A
N447        C473   1.337       .  A
N447        N449   1.321       .  A
N447       Co463   2.084       .  S
N448        C462   1.342       .  A
N449        N477   1.325       .  A
N449       Co467   2.094       .  S
H450        C473   1.081       .  S
H451        C468   1.082       .  S
N453       Co467   2.075       .  S
N454        N466   1.325       .  A
N454        N470   1.320   1_556  A
N454       Co463   2.095       .  S
C455        N459   1.345       .  A
C455        C469   1.458       .  S
C455        C508   1.458       .  S
C456        C475   1.459       .  S
C456        H460   1.082       .  S
N457        C468   1.343       .  A
N457       Co467   2.085       .  S
C461        N477   1.355       .  A
C461        C473   1.467       .  S
C461       C2162   1.490       .  S
Co463      Cl474   2.443       .  S
N464        C475   1.344       .  A
C465       C2176   1.492       .  S
Co467      Cl474   2.455       .  S
C478        N496   1.347   1_455  A
C478        C515   1.456       .  S
C478        C634   1.459       .  S
N479        N496   1.324       .  A
N479        N501   1.319   1_655  A
N479       Co516   2.077       .  S
C480        N505   1.337       .  A
C480        C518   1.466       .  S
C480        H525   1.081       .  S
H481        C522   1.082       .  S
C482        N506   1.339       .  A
C482        C486   1.456   1_655  S
C482        H511   1.082       .  S
Co483       N501   2.076       .  S
Co483       N491   2.070       .  S
Co483       N523   2.093       .  S
Co483       N499   2.102       .  S
Co483      Cl527   2.463       .  S
N484        C522   1.340       .  A
N484        N491   1.319       .  A
N484       Co485   2.083       .  S
Co485       N488   2.070       .  S
Co485       N505   2.083       .  S
Co485       N492   2.094       .  S
Co485      Cl527   2.438       .  S
C486        N524   1.346       .  A
C486        C561   1.457       .  S
N487        N494   1.318       .  A
N487        N517   1.323       .  A
N487       Co520   2.068       .  S
N488        N506   1.319   1_455  A
N488        N524   1.324       .  A
N489        C518   1.357       .  A
N489        N499   1.327       .  A
H490        C515   1.082       .  S
N491        N512   1.323       .  A
N492        N510   1.319   1_455  A
N492        N497   1.325       .  A
C493        N497   1.355       .  A
C493        C521   1.468   1_455  S
C493       C2148   1.494   1_455  S
N494        C509   1.341       .  A
N494       Co516   2.084       .  S
C495        N523   1.346       .  A
C495        C498   1.470       .  S
C495        H529   1.082       .  S
C498        N519   1.347   1_455  A
C498       C2137   1.494       .  S
N499        N505   1.321       .  A
N500        C526   1.336       .  A
N500        N502   1.318       .  A
N500       Co516   2.080       .  S
N501        C515   1.339       .  A
N502        N530   1.326       .  A
N502       Co520   2.090       .  S
H503        C526   1.082       .  S
H504        C521   1.081       .  S
N506       Co520   2.079       .  S
N507        N519   1.319       .  A
N507        N523   1.321   1_655  A
N507       Co516   2.083       .  S
C508        N512   1.346       .  A
C508        C522   1.457       .  S
C509        C528   1.458       .  S
C509        H513   1.082       .  S
N510        C521   1.336       .  A
N510       Co520   2.077       .  S
C514        N530   1.355       .  A
C514        C526   1.467       .  S
C514       C2109   1.491       .  S
Co516      Cl527   2.426   1_655  S
N517        C528   1.346       .  A
C518       C2120   1.496       .  S
Co520      Cl527   2.454   1_655  S
C531        N549   1.345       .  A
C531        C568   1.457   1_556  S
N532        N549   1.322       .  A
N532        N554   1.319   1_556  A
N532       Co569   2.068       .  S
C533        N558   1.337       .  A
C533        C571   1.465       .  S
C533        H578   1.081       .  S
H534        C575   1.082       .  S
C535        N559   1.341       .  A
C535        C539   1.458       .  S
C535        H564   1.082       .  S
Co536       N554   2.079       .  S
Co536       N544   2.065       .  S
Co536       N576   2.086       .  S
Co536       N552   2.098       .  S
Co536      Cl580   2.457   1_654  S
N537        C575   1.341       .  A
N537        N544   1.319   1_455  A
N537       Co538   2.085       .  S
Co538       N541   2.069       .  S
Co538       N558   2.084       .  S
Co538       N545   2.092       .  S
Co538      Cl580   2.439   1_554  S
C539        N577   1.345   1_556  A
N540        N547   1.318   1_455  A
N540        N570   1.324       .  A
N540       Co573   2.070       .  S
N541        N559   1.319   1_554  A
N541        N577   1.323       .  A
N542        C571   1.355   1_655  A
N542        N552   1.326       .  A
H543        C568   1.082       .  S
N544        N565   1.322       .  A
N545        N563   1.319   1_554  A
N545        N550   1.325       .  A
C546        N550   1.354   1_556  A
C546        C574   1.469       .  S
C546       C2078   1.496       .  S
N547        C562   1.341       .  A
N547       Co569   2.085       .  S
C548        N576   1.342       .  A
C548        C551   1.468   1_554  S
C548        H582   1.081       .  S
C551        N572   1.351       .  A
C551       C2050   1.495       .  S
N552        N558   1.321   1_655  A
N553        C579   1.337       .  A
N553        N555   1.319   1_655  A
N553       Co569   2.079       .  S
N554        C568   1.340       .  A
N555        N583   1.326       .  A
N555       Co573   2.095       .  S
H556        C579   1.081       .  S
H557        C574   1.081       .  S
N559       Co573   2.085       .  S
N560        N572   1.322       .  A
N560        N576   1.321   1_556  A
N560       Co569   2.090       .  S
C561        N565   1.345   1_455  A
C561        C575   1.457       .  S
C562        C581   1.457   1_655  S
C562        H566   1.082       .  S
N563        C574   1.337       .  A
N563       Co573   2.081       .  S
C567        N583   1.356   1_655  A
C567        C579   1.469       .  S
C567       C2067   1.496       .  S
Co569      Cl580   2.434   1_655  S
N570        C581   1.346       .  A
C571       C2095   1.493       .  S
Co573      Cl580   2.452       .  S
C584        N602   1.346   1_556  A
C584        C621   1.458       .  S
N585        N602   1.324       .  A
N585        N607   1.319   1_554  A
N585       Co622   2.070       .  S
C586        N611   1.336       .  A
C586        C624   1.464       .  S
C586        H631   1.080       .  S
H587        C628   1.082       .  S
C588        N612   1.339       .  A
C588        C592   1.456   1_554  S
C588        H617   1.082       .  S
Co589       N607   2.090       .  S
Co589       N597   2.068       .  S
Co589       N629   2.081       .  S
Co589       N605   2.095       .  S
Co589      Cl633   2.442   1_656  S
N590        C628   1.339       .  A
N590        N597   1.318   1_455  A
N590       Co591   2.079       .  S
Co591       N594   2.067       .  S
Co591       N611   2.070       .  S
Co591       N598   2.082       .  S
Co591      Cl633   2.436   1_556  S
C592        N630   1.344       .  A
N593        N600   1.319   1_455  A
N593        N623   1.323       .  A
N593       Co626   2.074       .  S
N594        N612   1.318   1_556  A
N594        N630   1.322       .  A
N595        C624   1.356   1_655  A
N595        N605   1.325       .  A
H596        C621   1.082       .  S
N597        N618   1.323       .  A
N598        N616   1.319   1_556  A
N598        N603   1.322       .  A
C599        N603   1.352   1_554  A
C599        C627   1.471       .  S
C599       C2008   1.494   1_554  S
N600        C615   1.341       .  A
N600       Co622   2.080       .  S
C601        N629   1.335       .  A
C601        C604   1.464       .  S
C601        H635   1.078       .  S
C604        N625   1.356   1_556  A
C604       C1994   1.494       .  S
N605        N611   1.318   1_655  A
N606        C632   1.342       .  A
N606        N608   1.322   1_655  A
N606       Co622   2.094       .  S
N607        C621   1.342       .  A
N608        N636   1.322       .  A
N608       Co626   2.087       .  S
H609        C632   1.081       .  S
H610        C627   1.081       .  S
N612       Co626   2.072       .  S
N613        N625   1.327       .  A
N613        N629   1.320   1_554  A
N613       Co622   2.101       .  S
C614        N618   1.346   1_455  A
C614        C628   1.455       .  S
C615        C634   1.457   1_655  S
C615        H619   1.082       .  S
N616        C627   1.342       .  A
N616       Co626   2.088       .  S
C620        N636   1.351       .  A
C620        C632   1.470   1_455  S
C620       C2039   1.493       .  S
Co622      Cl633   2.455   1_655  S
N623        C634   1.346       .  A
C624       C2025   1.491       .  S
Co626      Cl633   2.446       .  S
C637        N655   1.348       .  A
C637        C674   1.454       .  S
C637        C740   1.458       .  S
N638        N655   1.324       .  A
N638        N660   1.318       .  A
N638       Co675   2.079       .  S
C639        N664   1.339       .  A
C639        C677   1.460   1_554  S
C639        H684   1.082       .  S
H640        C681   1.082       .  S
C641        N665   1.339       .  A
C641        C645   1.454       .  S
C641        H670   1.082       .  S
Co642       N660   2.074       .  S
Co642       N650   2.076       .  S
Co642       N682   2.083       .  S
Co642       N658   2.095       .  S
Co642      Cl686   2.448       .  S
N643        C681   1.339       .  A
N643        N650   1.318   1_554  A
N643       Co644   2.070       .  S
Co644       N647   2.076       .  S
Co644       N664   2.080       .  S
Co644       N651   2.081       .  S
Co644      Cl686   2.433   1_554  S
C645        N683   1.347       .  A
C645        C796   1.456       .  S
N646        N653   1.318   1_554  A
N646        N676   1.323       .  A
N646       Co679   2.071       .  S
N647        N665   1.318       .  A
N647        N683   1.323       .  A
N648        C677   1.354       .  A
N648        N658   1.325       .  A
H649        C674   1.082       .  S
N650        N671   1.323       .  A
N651        N669   1.320       .  A
N651        N656   1.320       .  A
C652        N656   1.348       .  A
C652        C680   1.471       .  S
C652       C1969   1.493       .  S
N653        C668   1.339       .  A
N653       Co675   2.075       .  S
C654        N682   1.340       .  A
C654        C657   1.469       .  S
C654        H688   1.081       .  S
C657        N678   1.351       .  A
C657       C1980   1.496       .  S
N658        N664   1.321   1_556  A
N659        C685   1.337       .  A
N659        N661   1.320   1_556  A
N659       Co675   2.084       .  S
N660        C674   1.339       .  A
N661        N689   1.325       .  A
N661       Co679   2.093       .  S
H662        C685   1.081       .  S
H663        C680   1.082       .  S
N665       Co679   2.071       .  S
N666        N678   1.323       .  A
N666        N682   1.320       .  A
N666       Co675   2.085       .  S
C667        N671   1.347       .  A
C667        C681   1.454   1_556  S
C667        C849   1.457       .  S
C668        C687   1.454       .  S
C668        H672   1.082       .  S
N669        C680   1.345       .  A
N669       Co679   2.093       .  S
C673        N689   1.355   1_556  A
C673        C685   1.468       .  S
C673       C1955   1.493       .  S
Co675      Cl686   2.434       .  S
N676        C687   1.346   1_554  A
C677       C1938   1.482       .  S
Co679      Cl686   2.459   1_554  S
C687        C952   1.455       .  S
C690        N708   1.346       .  A
C690        C727   1.456   1_565  S
C690        C910   1.459       .  S
N691        N708   1.323       .  A
N691        N713   1.319   1_565  A
N691       Co728   2.073       .  S
C692        N717   1.342       .  A
C692        C730   1.469       .  S
C692        H737   1.082       .  S
H693        C734   1.082       .  S
C694        N718   1.338       .  A
C694        C698   1.453       .  S
C694        H723   1.082       .  S
Co695       N713   2.080       .  S
Co695       N703   2.075       .  S
Co695       N735   2.076       .  S
Co695       N711   2.090       .  S
Co695      Cl739   2.432   1_545  S
N696        C734   1.338       .  A
N696        N703   1.318       .  A
N696       Co697   2.068       .  S
Co697       N700   2.075       .  S
Co697       N717   2.086       .  S
Co697       N704   2.088       .  S
Co697      Cl739   2.452   1_545  S
C698        N736   1.346   1_565  A
C698        C879   1.454       .  S
N699        N706   1.318       .  A
N699        N729   1.323       .  A
N699       Co732   2.079       .  S
N700        N718   1.318   1_545  A
N700        N736   1.323       .  A
N701        C730   1.353       .  A
N701        N711   1.323       .  A
H702        C727   1.082       .  S
N703        N724   1.323       .  A
N704        N722   1.318   1_545  A
N704        N709   1.322       .  A
C705        N709   1.355   1_565  A
C705        C733   1.472       .  S
C705       C1899   1.501       .  S
N706        C721   1.340       .  A
N706       Co728   2.071       .  S
C707        N735   1.337       .  A
C707        C710   1.463       .  S
C707        H741   1.080       .  S
C710        N731   1.354   1_545  A
C710       C1885   1.490       .  S
N711        N717   1.320       .  A
N712        C738   1.345       .  A
N712        N714   1.321       .  A
N712       Co728   2.095       .  S
N713        C727   1.341       .  A
N714        N742   1.321       .  A
N714       Co732   2.084       .  S
H715        C738   1.081       .  S
H716        C733   1.075       .  S
N718       Co732   2.068       .  S
N719        N731   1.324       .  A
N719        N735   1.321   1_565  A
N719       Co728   2.094       .  S
C720        N724   1.347       .  A
C720        C734   1.453       .  S
C720        C743   1.455       .  S
C721        C740   1.455       .  S
C721        H725   1.082       .  S
N722        C733   1.340       .  A
N722       Co732   2.084       .  S
C726        N742   1.349       .  A
C726        C738   1.471       .  S
C726       C1924   1.497       .  S
Co728      Cl739   2.457       .  S
N729        C740   1.347       .  A
C730       C1910   1.493       .  S
Co732      Cl739   2.434       .  S
C743        N761   1.347       .  A
C743        C780   1.453       .  S
N744        N761   1.323       .  A
N744        N766   1.318       .  A
N744       Co781   2.078       .  S
C745        N770   1.341       .  A
C745        C783   1.471       .  S
C745        H790   1.078       .  S
H746        C787   1.082       .  S
C747        N771   1.339       .  A
C747        C751   1.453       .  S
C747        H776   1.082       .  S
Co748       N766   2.067       .  S
Co748       N756   2.081       .  S
Co748       N788   2.083       .  S
Co748       N764   2.086       .  S
Co748      Cl792   2.448       .  S
N749        C787   1.340       .  A
N749        N756   1.318   1_554  A
N749       Co750   2.074       .  S
Co750       N753   2.079       .  S
Co750       N770   2.090       .  S
Co750       N757   2.089       .  S
Co750      Cl792   2.441   1_554  S
C751        N789   1.347       .  A
C751        C804   1.456       .  S
N752        N759   1.319   1_554  A
N752        N782   1.324       .  A
N752       Co785   2.069       .  S
N753        N771   1.319       .  A
N753        N789   1.323       .  A
N754        C783   1.353   1_556  A
N754        N764   1.322       .  A
H755        C780   1.082       .  S
N756        N777   1.324       .  A
N757        N775   1.322       .  A
N757        N762   1.322       .  A
C758        N762   1.351       .  A
C758        C786   1.469       .  S
C758       C1871   1.494       .  S
N759        C774   1.341       .  A
N759       Co781   2.087       .  S
C760        N788   1.341       .  A
C760        C763   1.470       .  S
C760        H794   1.078       .  S
C763        N784   1.355       .  A
C763       C1857   1.495       .  S
N764        N770   1.319   1_556  A
N765        C791   1.336       .  A
N765        N767   1.320   1_556  A
N765       Co781   2.080       .  S
N766        C780   1.338       .  A
N767        N795   1.326       .  A
N767       Co785   2.095       .  S
H768        C791   1.079       .  S
H769        C786   1.081       .  S
N771       Co785   2.071       .  S
N772        N784   1.323       .  A
N772        N788   1.318       .  A
N772       Co781   2.089       .  S
C773        N777   1.348   1_554  A
C773        C787   1.456       .  S
C773        C932   1.461   1_554  S
C774        C793   1.458       .  S
C774        H778   1.082       .  S
N775        C786   1.343       .  A
N775       Co785   2.092       .  S
C779        N795   1.355   1_556  A
C779        C791   1.464       .  S
C779       C1840   1.491       .  S
Co781      Cl792   2.431       .  S
N782        C793   1.346   1_554  A
C783       C1829   1.492   1_554  S
Co785      Cl792   2.459   1_554  S
C793        C857   1.461       .  S
C796        N814   1.347       .  A
C796        C833   1.454       .  S
N797        N814   1.323       .  A
N797        N819   1.317       .  A
N797       Co834   2.075       .  S
C798        N823   1.342       .  A
C798        C836   1.468   1_545  S
C798        H843   1.082       .  S
H799        C840   1.082       .  S
C800        N824   1.338       .  A
C800        C804   1.452       .  S
C800        H829   1.082       .  S
Co801       N819   2.069       .  S
Co801       N809   2.078       .  S
Co801       N841   2.085       .  S
Co801       N817   2.084       .  S
Co801      Cl845   2.444       .  S
N802        C840   1.339       .  A
N802        N809   1.318   1_545  A
N802       Co803   2.073       .  S
Co803       N806   2.082       .  S
Co803       N823   2.089       .  S
Co803       N810   2.093       .  S
Co803      Cl845   2.443   1_545  S
C804        N842   1.348       .  A
N805        N812   1.318   1_545  A
N805        N835   1.324       .  A
N805       Co838   2.078       .  S
N806        N824   1.318       .  A
N806        N842   1.324       .  A
N807        C836   1.350       .  A
N807        N817   1.322       .  A
H808        C833   1.082       .  S
N809        N830   1.323       .  A
N810        N828   1.321       .  A
N810        N815   1.323       .  A
C811        N815   1.354       .  A
C811        C839   1.469       .  S
C811       C1770   1.494       .  S
N812        C827   1.338       .  A
N812       Co834   2.066       .  S
C813        N841   1.340       .  A
C813        C816   1.470       .  S
C813        H847   1.081       .  S
C816        N837   1.350       .  A
C816       C1784   1.495       .  S
N817        N823   1.321   1_565  A
N818        C844   1.339       .  A
N818        N820   1.321   1_565  A
N818       Co834   2.081       .  S
N819        C833   1.339       .  A
N820        N848   1.323       .  A
N820       Co838   2.089       .  S
H821        C844   1.081       .  S
H822        C839   1.081       .  S
N824       Co838   2.065       .  S
N825        N837   1.322       .  A
N825        N841   1.319       .  A
N825       Co834   2.083       .  S
C826        N830   1.347       .  A
C826        C840   1.455   1_565  S
C826        C899   1.458       .  S
C827        C846   1.452       .  S
C827        H831   1.082       .  S
N828        C839   1.342       .  A
N828       Co838   2.088       .  S
C832        N848   1.352   1_565  A
C832        C844   1.466       .  S
C832       C1812   1.493       .  S
Co834      Cl845   2.442       .  S
N835        C846   1.348   1_545  A
C836       C1798   1.493       .  S
Co838      Cl845   2.447   1_545  S
C846        C902   1.455       .  S
C849        N867   1.347   1_556  A
C849        C886   1.454       .  S
N850        N867   1.323       .  A
N850        N872   1.318   1_554  A
N850       Co887   2.076       .  S
C851        N876   1.338       .  A
C851        C889   1.468   1_545  S
C851        H896   1.081       .  S
H852        C893   1.082       .  S
C853        N877   1.341       .  A
C853        C857   1.458   1_554  S
C853        H882   1.082       .  S
Co854       N872   2.074       .  S
Co854       N862   2.074       .  S
Co854       N894   2.085       .  S
Co854       N870   2.090       .  S
Co854      Cl898   2.439       .  S
N855        C893   1.339       .  A
N855        N862   1.318   1_545  A
N855       Co856   2.071       .  S
Co856       N859   2.070       .  S
Co856       N876   2.084       .  S
Co856       N863   2.091       .  S
Co856      Cl898   2.454   1_545  S
C857        N895   1.346       .  A
N858        N865   1.318   1_545  A
N858        N888   1.324       .  A
N858       Co891   2.079       .  S
N859        N877   1.318   1_556  A
N859        N895   1.323       .  A
N860        C889   1.352       .  A
N860        N870   1.324       .  A
H861        C886   1.082       .  S
N862        N883   1.323       .  A
N863        N881   1.319   1_556  A
N863        N868   1.325       .  A
C864        N868   1.356       .  A
C864        C892   1.467   1_556  S
C864       C1728   1.493       .  S
N865        C880   1.339       .  A
N865       Co887   2.072       .  S
C866        N894   1.339       .  A
C866        C869   1.473       .  S
C866        H900   1.075       .  S
C869        N890   1.357   1_556  A
C869       C1714   1.503       .  S
N870        N876   1.321   1_565  A
N871        C897   1.343       .  A
N871        N873   1.320   1_565  A
N871       Co887   2.090       .  S
N872        C886   1.339       .  A
N873        N901   1.321       .  A
N873       Co891   2.085       .  S
H874        C897   1.082       .  S
H875        C892   1.081       .  S
N877       Co891   2.083       .  S
N878        N890   1.323       .  A
N878        N894   1.319   1_554  A
N878       Co887   2.095       .  S
C879        N883   1.346       .  A
C879        C893   1.453   1_565  S
C880        C899   1.455       .  S
C880        H884   1.082       .  S
N881        C892   1.336       .  A
N881       Co891   2.079       .  S
C885        N901   1.352   1_565  A
C885        C897   1.471       .  S
C885       C1756   1.492       .  S
Co887      Cl898   2.455   1_554  S
N888        C899   1.347   1_545  A
C889       C1742   1.496       .  S
Co891      Cl898   2.433   1_544  S
C902        N920   1.347       .  A
C902        C939   1.454   1_565  S
N903        N920   1.322       .  A
N903        N925   1.317   1_565  A
N903       Co940   2.076       .  S
C904        N929   1.342       .  A
C904        C942   1.467   1_556  S
C904        H949   1.082       .  S
H905        C946   1.082       .  S
C906        N930   1.339       .  A
C906        C910   1.454       .  S
C906        H935   1.082       .  S
Co907       N925   2.068       .  S
Co907       N915   2.081       .  S
Co907       N947   2.095       .  S
Co907       N923   2.089       .  S
Co907      Cl951   2.451   1_544  S
N908        C946   1.341       .  A
N908        N915   1.319   1_556  A
N908       Co909   2.078       .  S
Co909       N912   2.076       .  S
Co909       N929   2.093       .  S
Co909       N916   2.099       .  S
Co909      Cl951   2.446   1_545  S
C910        N948   1.347   1_565  A
N911        N918   1.317   1_556  A
N911        N941   1.322       .  A
N911       Co944   2.066       .  S
N912        N930   1.319   1_545  A
N912        N948   1.324       .  A
N913        C942   1.352       .  A
N913        N923   1.322       .  A
H914        C939   1.082       .  S
N915        N936   1.324       .  A
N916        N934   1.321   1_545  A
N916        N921   1.325       .  A
C917        N921   1.355   1_565  A
C917        C945   1.468       .  S
C917       C1686   1.497       .  S
N918        C933   1.339       .  A
N918       Co940   2.074       .  S
C919        N947   1.345       .  A
C919        C922   1.472   1_545  S
C919        H953   1.081       .  S
C922        N943   1.347       .  A
C922       C1700   1.493       .  S
N923        N929   1.322   1_554  A
N924        C950   1.335       .  A
N924        N926   1.318   1_554  A
N924       Co940   2.076       .  S
N925        C939   1.339       .  A
N926        N954   1.327       .  A
N926       Co944   2.094       .  S
H927        C950   1.081       .  S
H928        C945   1.080       .  S
N930       Co944   2.078       .  S
N931        N943   1.320       .  A
N931        N947   1.319   1_565  A
N931       Co940   2.074       .  S
C932        N936   1.347   1_556  A
C932        C946   1.456       .  S
C933        C952   1.455   1_554  S
C933        H937   1.082       .  S
N934        C945   1.336       .  A
N934       Co944   2.080       .  S
C938        N954   1.356   1_554  A
C938        C950   1.464       .  S
C938       C1672   1.491       .  S
Co940      Cl951   2.431   1_554  S
N941        C952   1.346       .  A
C942       C1658   1.488       .  S
Co944      Cl951   2.450       .  S
C955        N973   1.346   1_455  A
C955        C992   1.456       .  S
C955       C1220   1.460       .  S
N956        N973   1.324       .  A
N956        N978   1.319   1_655  A
N956       Co993   2.077       .  S
C957        N982   1.332       .  A
C957        C995   1.463       .  S
C957       H1002   1.076       .  S
H958        C999   1.082       .  S
C959        N983   1.339       .  A
C959        C963   1.455   1_655  S
C959        H988   1.082       .  S
Co960       N978   2.080       .  S
Co960       N968   2.067       .  S
Co960      N1000   2.092       .  S
Co960       N976   2.102       .  S
Co960     Cl1004   2.456       .  S
N961        C999   1.340       .  A
N961        N968   1.318       .  A
N961       Co962   2.081       .  S
Co962       N965   2.070       .  S
Co962       N982   2.071       .  S
Co962       N969   2.081       .  S
Co962     Cl1004   2.430       .  S
C963       N1001   1.347       .  A
C963       C1167   1.456       .  S
N964        N971   1.318       .  A
N964        N994   1.322       .  A
N964       Co997   2.071       .  S
N965        N983   1.317   1_455  A
N965       N1001   1.323       .  A
N966        C995   1.359       .  A
N966        N976   1.327       .  A
H967        C992   1.082       .  S
N968        N989   1.323       .  A
N969        N987   1.318   1_455  A
N969        N974   1.322       .  A
C970        N974   1.351       .  A
C970        C998   1.469   1_455  S
C970       C1619   1.492       .  S
N971        C986   1.338       .  A
N971       Co993   2.067       .  S
C972       N1000   1.340       .  A
C972        C975   1.471       .  S
C972       H1006   1.080       .  S
C975        N996   1.352   1_455  A
C975       C1630   1.498       .  S
N976        N982   1.318       .  A
N977       C1003   1.343       .  A
N977        N979   1.321       .  A
N977       Co993   2.095       .  S
N978        C992   1.340       .  A
N979       N1007   1.321       .  A
N979       Co997   2.082       .  S
H980       C1003   1.082       .  S
H981        C998   1.082       .  S
N983       Co997   2.070       .  S
N984        N996   1.324       .  A
N984       N1000   1.322   1_655  A
N984       Co993   2.091       .  S
C985        N989   1.346       .  A
C985        C999   1.456       .  S
C985       C1061   1.458       .  S
C986       C1005   1.453       .  S
C986        H990   1.082       .  S
N987        C998   1.342       .  A
N987       Co997   2.084       .  S
C991       N1007   1.348       .  A
C991       C1003   1.469       .  S
C991       C1647   1.493       .  S
Co993     Cl1004   2.441   1_655  S
N994       C1005   1.346       .  A
C995       C1602   1.496       .  S
Co997     Cl1004   2.449   1_655  S
C1005      C1058   1.451       .  S
C1008      N1026   1.348       .  A
C1008      C1045   1.454   1_565  S
C1008      C1217   1.459       .  S
N1009      N1026   1.324       .  A
N1009      N1031   1.318   1_565  A
N1009     Co1046   2.080       .  S
C1010      N1035   1.340       .  A
C1010      C1048   1.468       .  S
C1010      H1055   1.081       .  S
H1011      C1052   1.082       .  S
C1012      N1036   1.338       .  A
C1012      C1016   1.453       .  S
C1012      H1041   1.082       .  S
Co1013     N1031   2.072       .  S
Co1013     N1021   2.078       .  S
Co1013     N1053   2.086       .  S
Co1013     N1029   2.089       .  S
Co1013    Cl1057   2.439   1_545  S
N1014      C1052   1.339       .  A
N1014      N1021   1.318       .  A
N1014     Co1015   2.072       .  S
Co1015     N1018   2.074       .  S
Co1015     N1035   2.086       .  S
Co1015     N1022   2.094       .  S
Co1015    Cl1057   2.452   1_545  S
C1016      N1054   1.347   1_565  A
C1016      C1250   1.454       .  S
N1017      N1024   1.317       .  A
N1017      N1047   1.323       .  A
N1017     Co1050   2.073       .  S
N1018      N1036   1.318   1_545  A
N1018      N1054   1.323       .  A
N1019      C1048   1.351       .  A
N1019      N1029   1.322       .  A
H1020      C1045   1.082       .  S
N1021      N1042   1.324       .  A
N1022      N1040   1.319   1_545  A
N1022      N1027   1.326       .  A
C1023      N1027   1.357   1_565  A
C1023      C1051   1.469       .  S
C1023      C1574   1.497       .  S
N1024      C1039   1.337       .  A
N1024     Co1046   2.062       .  S
C1025      N1053   1.340       .  A
C1025      C1028   1.469   1_545  S
C1025      H1059   1.081       .  S
C1028      N1049   1.350       .  A
C1028      C1560   1.495       .  S
N1029      N1035   1.321       .  A
N1030      C1056   1.342       .  A
N1030      N1032   1.319       .  A
N1030     Co1046   2.090       .  S
N1031      C1045   1.340       .  A
N1032      N1060   1.323       .  A
N1032     Co1050   2.085       .  S
H1033      C1056   1.081       .  S
H1034      C1051   1.077       .  S
N1036     Co1050   2.069       .  S
N1037      N1049   1.321       .  A
N1037      N1053   1.320   1_565  A
N1037     Co1046   2.083       .  S
C1038      N1042   1.347       .  A
C1038      C1052   1.454       .  S
C1038      C1114   1.458       .  S
C1039      C1058   1.452       .  S
C1039      H1043   1.082       .  S
N1040      C1051   1.334       .  A
N1040     Co1050   2.075       .  S
C1044      N1060   1.353       .  A
C1044      C1056   1.470       .  S
C1044      C1591   1.493       .  S
Co1046    Cl1057   2.449       .  S
N1047      C1058   1.346       .  A
C1048      C1546   1.494       .  S
Co1050    Cl1057   2.434       .  S
C1061      N1079   1.346       .  A
C1061      C1098   1.456       .  S
N1062      N1079   1.323       .  A
N1062      N1084   1.318       .  A
N1062     Co1099   2.067       .  S
C1063      N1088   1.336       .  A
C1063      C1101   1.468   1_545  S
C1063      H1108   1.081       .  S
H1064      C1105   1.082       .  S
C1065      N1089   1.341       .  A
C1065      C1069   1.457       .  S
C1065      H1094   1.082       .  S
Co1066     N1084   2.083       .  S
Co1066     N1074   2.066       .  S
Co1066     N1106   2.078       .  S
Co1066     N1082   2.090       .  S
Co1066    Cl1110   2.441       .  S
N1067      C1105   1.339       .  A
N1067      N1074   1.317   1_545  A
N1067     Co1068   2.075       .  S
Co1068     N1071   2.072       .  S
Co1068     N1088   2.076       .  S
Co1068     N1075   2.079       .  S
Co1068    Cl1110   2.439   1_545  S
C1069      N1107   1.346       .  A
C1069      C1122   1.459       .  S
N1070      N1077   1.319   1_545  A
N1070      N1100   1.323       .  A
N1070     Co1103   2.076       .  S
N1071      N1089   1.318       .  A
N1071      N1107   1.323       .  A
N1072      C1101   1.355       .  A
N1072      N1082   1.325       .  A
H1073      C1098   1.082       .  S
N1074      N1095   1.322       .  A
N1075      N1093   1.319       .  A
N1075      N1080   1.320       .  A
C1076      N1080   1.349       .  A
C1076      C1104   1.472       .  S
C1076      C1504   1.494       .  S
N1077      C1092   1.340       .  A
N1077     Co1099   2.076       .  S
C1078      N1106   1.334       .  A
C1078      C1081   1.467       .  S
C1078      H1112   1.076       .  S
C1081      N1102   1.358       .  A
C1081      C1518   1.499       .  S
N1082      N1088   1.318   1_565  A
N1083      C1109   1.341       .  A
N1083      N1085   1.322   1_565  A
N1083     Co1099   2.088       .  S
N1084      C1098   1.340       .  A
N1085      N1113   1.323       .  A
N1085     Co1103   2.096       .  S
H1086      C1109   1.079       .  S
H1087      C1104   1.081       .  S
N1089     Co1103   2.078       .  S
N1090      N1102   1.327       .  A
N1090      N1106   1.319       .  A
N1090     Co1099   2.102       .  S
C1091      N1095   1.345       .  A
C1091      C1105   1.456   1_565  S
C1091      C1270   1.455       .  S
C1092      C1111   1.455       .  S
C1092      H1096   1.082       .  S
N1093      C1104   1.343       .  A
N1093     Co1103   2.090       .  S
C1097      N1113   1.354   1_565  A
C1097      C1109   1.469       .  S
C1097      C1535   1.493       .  S
Co1099    Cl1110   2.452       .  S
N1100      C1111   1.346   1_545  A
C1101      C1490   1.495       .  S
Co1103    Cl1110   2.444   1_545  S
C1111      C1197   1.457       .  S
C1114      N1132   1.347       .  A
C1114      C1151   1.455       .  S
N1115      N1132   1.323       .  A
N1115      N1137   1.318       .  A
N1115     Co1152   2.078       .  S
C1116      N1141   1.337       .  A
C1116      C1154   1.467       .  S
C1116      H1161   1.081       .  S
H1117      C1158   1.082       .  S
C1118      N1142   1.339       .  A
C1118      C1122   1.455       .  S
C1118      H1147   1.082       .  S
Co1119     N1137   2.072       .  S
Co1119     N1127   2.071       .  S
Co1119     N1159   2.092       .  S
Co1119     N1135   2.094       .  S
Co1119    Cl1163   2.460   1_655  S
N1120      C1158   1.340       .  A
N1120      N1127   1.319   1_455  A
N1120     Co1121   2.077       .  S
Co1121     N1124   2.075       .  S
Co1121     N1141   2.082       .  S
Co1121     N1128   2.089       .  S
Co1121    Cl1163   2.433       .  S
C1122      N1160   1.347       .  A
N1123      N1130   1.318   1_455  A
N1123      N1153   1.322       .  A
N1123     Co1156   2.064       .  S
N1124      N1142   1.318       .  A
N1124      N1160   1.324       .  A
N1125      C1154   1.355   1_655  A
N1125      N1135   1.325       .  A
H1126      C1151   1.082       .  S
N1127      N1148   1.323       .  A
N1128      N1146   1.320       .  A
N1128      N1133   1.322       .  A
C1129      N1133   1.351       .  A
C1129      C1157   1.470       .  S
C1129      C1462   1.497       .  S
N1130      C1145   1.339       .  A
N1130     Co1152   2.079       .  S
C1131      N1159   1.344       .  A
C1131      C1134   1.471       .  S
C1131      H1165   1.081       .  S
C1134      N1155   1.352       .  A
C1134      C1448   1.496       .  S
N1135      N1141   1.321   1_655  A
N1136      C1162   1.337       .  A
N1136      N1138   1.320   1_655  A
N1136     Co1152   2.084       .  S
N1137      C1151   1.340       .  A
N1138      N1166   1.326       .  A
N1138     Co1156   2.093       .  S
H1139      C1162   1.081       .  S
H1140      C1157   1.081       .  S
N1142     Co1156   2.076       .  S
N1143      N1155   1.322       .  A
N1143      N1159   1.321       .  A
N1143     Co1152   2.090       .  S
C1144      N1148   1.346   1_455  A
C1144      C1158   1.455       .  S
C1144      C1175   1.456       .  S
C1145      C1164   1.456   1_655  S
C1145      H1149   1.082       .  S
N1146      C1157   1.340       .  A
N1146     Co1156   2.082       .  S
C1150      N1166   1.355       .  A
C1150      C1162   1.469   1_455  S
C1150      C1434   1.497       .  S
Co1152    Cl1163   2.429   1_655  S
N1153      C1164   1.345       .  A
C1154      C1476   1.492       .  S
Co1156    Cl1163   2.457       .  S
C1164      C1228   1.454       .  S
C1167      N1185   1.346   1_455  A
C1167      C1204   1.455       .  S
N1168      N1185   1.323       .  A
N1168      N1190   1.319   1_655  A
N1168     Co1205   2.076       .  S
C1169      N1194   1.341       .  A
C1169      C1207   1.469   1_545  S
C1169      H1214   1.080       .  S
H1170      C1211   1.082       .  S
C1171      N1195   1.339       .  A
C1171      C1175   1.454   1_655  S
C1171      H1200   1.082       .  S
Co1172     N1190   2.072       .  S
Co1172     N1180   2.077       .  S
Co1172     N1212   2.086       .  S
Co1172     N1188   2.093       .  S
Co1172    Cl1216   2.442       .  S
N1173      C1211   1.339       .  A
N1173      N1180   1.319   1_545  A
N1173     Co1174   2.074       .  S
Co1174     N1177   2.072       .  S
Co1174     N1194   2.088       .  S
Co1174     N1181   2.094       .  S
Co1174    Cl1216   2.457   1_545  S
C1175      N1213   1.347       .  A
N1176      N1183   1.318   1_545  A
N1176      N1206   1.324       .  A
N1176     Co1209   2.079       .  S
N1177      N1195   1.318   1_455  A
N1177      N1213   1.323       .  A
N1178      C1207   1.354       .  A
N1178      N1188   1.323       .  A
H1179      C1204   1.082       .  S
N1180      N1201   1.323       .  A
N1181      N1199   1.319   1_455  A
N1181      N1186   1.326       .  A
C1182      N1186   1.356       .  A
C1182      C1210   1.466   1_455  S
C1182      C1420   1.491   1_455  S
N1183      C1198   1.339       .  A
N1183     Co1205   2.072       .  S
C1184      N1212   1.342       .  A
C1184      C1187   1.469       .  S
C1184      H1218   1.080       .  S
C1187      N1208   1.353   1_455  A
C1187      C1392   1.494       .  S
N1188      N1194   1.321   1_565  A
N1189      C1215   1.344       .  A
N1189      N1191   1.319   1_565  A
N1189     Co1205   2.089       .  S
N1190      C1204   1.339       .  A
N1191      N1219   1.321       .  A
N1191     Co1209   2.081       .  S
H1192      C1215   1.082       .  S
H1193      C1210   1.081       .  S
N1195     Co1209   2.075       .  S
N1196      N1208   1.322       .  A
N1196      N1212   1.321   1_655  A
N1196     Co1205   2.089       .  S
C1197      N1201   1.347       .  A
C1197      C1211   1.455   1_565  S
C1198      C1217   1.455       .  S
C1198      H1202   1.082       .  S
N1199      C1210   1.336       .  A
N1199     Co1209   2.079       .  S
C1203      N1219   1.349   1_565  A
C1203      C1215   1.470       .  S
C1203      C1409   1.494       .  S
Co1205    Cl1216   2.449   1_655  S
N1206      C1217   1.348   1_545  A
C1207      C1381   1.493       .  S
Co1209    Cl1216   2.431   1_645  S
C1220      N1238   1.346       .  A
C1220      C1257   1.458   1_455  S
N1221      N1238   1.323       .  A
N1221      N1243   1.319   1_455  A
N1221     Co1258   2.070       .  S
C1222      N1247   1.337       .  A
C1222      C1260   1.469   1_545  S
C1222      H1267   1.078       .  S
H1223      C1264   1.082       .  S
C1224      N1248   1.340       .  A
C1224      C1228   1.456       .  S
C1224      H1253   1.082       .  S
Co1225     N1243   2.084       .  S
Co1225     N1233   2.072       .  S
Co1225     N1265   2.080       .  S
Co1225     N1241   2.095       .  S
Co1225    Cl1269   2.439   1_655  S
N1226      C1264   1.339       .  A
N1226      N1233   1.318   1_545  A
N1226     Co1227   2.072       .  S
Co1227     N1230   2.064       .  S
Co1227     N1247   2.075       .  S
Co1227     N1234   2.087       .  S
Co1227    Cl1269   2.446   1_645  S
C1228      N1266   1.344   1_455  A
N1229      N1236   1.319   1_545  A
N1229      N1259   1.322       .  A
N1229     Co1262   2.070       .  S
N1230      N1248   1.318   1_655  A
N1230      N1266   1.322       .  A
N1231      C1260   1.356       .  A
N1231      N1241   1.324       .  A
H1232      C1257   1.082       .  S
N1233      N1254   1.322       .  A
N1234      N1252   1.319   1_655  A
N1234      N1239   1.324       .  A
C1235      N1239   1.352   1_455  A
C1235      C1263   1.471       .  S
C1235      C1336   1.493       .  S
N1236      C1251   1.340       .  A
N1236     Co1258   2.076       .  S
C1237      N1265   1.336       .  A
C1237      C1240   1.468   1_655  S
C1237      H1271   1.080       .  S
C1240      N1261   1.355       .  A
C1240      C1367   1.493       .  S
N1241      N1247   1.319   1_565  A
N1242      C1268   1.340       .  A
N1242      N1244   1.320   1_565  A
N1242     Co1258   2.084       .  S
N1243      C1257   1.341       .  A
N1244      N1272   1.322       .  A
N1244     Co1262   2.090       .  S
H1245      C1268   1.081       .  S
H1246      C1263   1.081       .  S
N1248     Co1262   2.078       .  S
N1249      N1261   1.325       .  A
N1249      N1265   1.320   1_455  A
N1249     Co1258   2.092       .  S
C1250      N1254   1.346       .  A
C1250      C1264   1.454   1_565  S
C1251      C1270   1.455       .  S
C1251      H1255   1.082       .  S
N1252      C1263   1.340       .  A
N1252     Co1262   2.087       .  S
C1256      N1272   1.352   1_565  A
C1256      C1268   1.470       .  S
C1256      C1350   1.495       .  S
Co1258    Cl1269   2.451       .  S
N1259      C1270   1.345   1_545  A
C1260      C1322   1.495       .  S
Co1262    Cl1269   2.440   1_545  S
C1273      C1274   1.360       .  D
C1273      C2092   1.494       .  S
C1273      C2151   1.489   1_455  S
C1274      C1423   1.489   1_455  S
C1274      C1479   1.494       .  S
C1275      C1276   1.362       .  D
C1275      C1703   1.488       .  S
C1275      C1815   1.491       .  S
C1276      C1406   1.492       .  S
C1276      C1563   1.492       .  S
C1277      C1278   1.363       .  D
C1277      C1395   1.498       .  S
C1277      C1616   1.495       .  S
C1278      C2036   1.492       .  S
C1278      C2134   1.495       .  S
C1279      C1280   1.361       .  D
C1279      C1759   1.493       .  S
C1279      C1801   1.491       .  S
C1280      C1378   1.493       .  S
C1280      C1532   1.498       .  S
C1281      C1282   1.361       .  D
C1281      C2372   1.491       .  S
C1281      C2638   1.492       .  S
C1282      C1465   1.488       .  S
C1282      C1507   1.488       .  S
C1283      C1284   1.366       .  D
C1283      C2473   1.496       .  S
C1283      C2655   1.498       .  S
C1284      C1451   1.498       .  S
C1284      C1549   1.494       .  S
C1285      C1286   1.362       .  D
C1285      C1521   1.493       .  S
C1285      C1605   1.495       .  S
C1286      C2361   1.490       .  S
C1286      C2529   1.495       .  S
C1287      C1288   1.364   1_545  D
C1287      C1745   1.493   1_545  S
C1287      C1896   1.497       .  S
C1288      C1353   1.494       .  S
C1288      C1493   1.493   1_565  S
C1289      C1290   1.364       .  D
C1289      C2081   1.495       .  S
C1289      C2207   1.497       .  S
C1290      C1731   1.496       .  S
C1290      C1843   1.499       .  S
C1291      C1292   1.372       .  D
C1291      C1717   1.498       .  S
C1291      C1941   1.528       .  S
C1292      C2011   1.498       .  S
C1292      C2193   1.487       .  S
C1293      C1294   1.362       .  D
C1293      C2543   1.495       .  S
C1293      C2599   1.491       .  S
C1294      C1787   1.490       .  S
C1294      C1966   1.492       .  S
C1295      C1296   1.366       .  D
C1295      C2585   1.499       .  S
C1295      C2627   1.498       .  S
C1296      C1773   1.495       .  S
C1296      C1868   1.495       .  S
C1297      C1298   1.363       .  D
C1297      C2431   1.494       .  S
C1297      C2613   1.497       .  S
C1298      C1854   1.495       .  S
C1298      C1913   1.494       .  S
C1299      C1300   1.365   1_655  D
C1299      C2064   1.499       .  S
C1299      C2235   1.503   1_655  S
C1300      C1339   1.496       .  S
C1300      C1437   1.494       .  S
C1301      C1302   1.362       .  D
C1301      C2053   1.491   1_554  S
C1301      C2277   1.491       .  S
C1302      C1661   1.499       .  S
C1302      C1826   1.494   1_554  S
C1303      C1304   1.363       .  D
C1303      C2347   1.495       .  S
C1303      C2571   1.494       .  S
C1304      C2123   1.494       .  S
C1304      C2179   1.496       .  S
C1305      C1306   1.365       .  D
C1305      C2487   1.500       .  S
C1305      C2557   1.497       .  S
C1306      C2106   1.498       .  S
C1306      C2305   1.495       .  S
C1307      C1308   1.364       .  D
C1307      C2333   1.501       .  S
C1307      C2417   1.494       .  S
C1308      C2165   1.494       .  S
C1308      C2221   1.493       .  S
C1309      C1310   1.361       .  D
C1309      C2022   1.495       .  S
C1309      C2246   1.493       .  S
C1310      C1364   1.494       .  S
C1310      C1633   1.497       .  S
C1311      C1312   1.360       .  D
C1311      C1689   1.492       .  S
C1311      C1882   1.497       .  S
C1312      C1325   1.490       .  S
C1312      C1577   1.489       .  S
C1313      C1314   1.363   1_554  D
C1313      C1997   1.496   1_554  S
C1313      C2291   1.497       .  S
C1314      C1675   1.493   1_556  S
C1314      C1952   1.492       .  S
C1315      C1316   1.369       .  D
C1315      C2403   1.496       .  S
C1315      C2459   1.495       .  S
C1316      C2263   1.513       .  S
C1316      C2319   1.498       .  S
C1317      C1318   1.362       .  D
C1317      C2445   1.494       .  S
C1317      C2501   1.494       .  S
C1318      C1588   1.496       .  S
C1318      C1644   1.493       .  S
C1319      C1320   1.365       .  D
C1319      C2389   1.500       .  S
C1319      C2515   1.494       .  S
C1320      C1927   1.491       .  S
C1320      C1983   1.492       .  S
C1321      H1328   1.083       .  S
C1321      C1322   1.408       .  A
C1321      C1326   1.403       .  A
C1322      C1323   1.417   1_565  A
C1323      C1324   1.405       .  A
C1323      N1330   1.430       .  S
C1324      H1329   1.082       .  S
C1324      C1325   1.400   1_545  A
C1325      C1326   1.405       .  A
C1326      N1327   1.430       .  S
N1327      H1331   1.045       .  S
N1327      H1332   1.046       .  S
N1330      H1333   1.046       .  S
N1330      H1334   1.046       .  S
C1335      H1342   1.080       .  S
C1335      C1336   1.408       .  A
C1335      C1340   1.404       .  A
C1336      C1337   1.419   1_455  A
C1337      C1338   1.403       .  A
C1337      N1344   1.433       .  S
C1338      H1343   1.082       .  S
C1338      C1339   1.404   1_655  A
C1339      C1340   1.409       .  A
C1340      N1341   1.438       .  S
N1341      H1345   1.045       .  S
N1341      H1346   1.045       .  S
N1344      H1347   1.045       .  S
N1344      H1348   1.044       .  S
C1349      H1356   1.081       .  S
C1349      C1350   1.411       .  A
C1349      C1354   1.406       .  A
C1350      C1351   1.420   1_565  A
C1351      C1352   1.398       .  A
C1351      N1358   1.433       .  S
C1352      H1357   1.077       .  S
C1352      C1353   1.401   1_545  A
C1353      C1354   1.405       .  A
C1354      N1355   1.432       .  S
N1355      H1359   1.046       .  S
N1355      H1360   1.045       .  S
N1358      H1361   1.046       .  S
N1358      H1362   1.044       .  S
C1363      H1370   1.081       .  S
C1363      C1364   1.405       .  A
C1363      C1368   1.411       .  A
C1364      C1365   1.415   1_455  A
C1365      C1366   1.396       .  A
C1365      N1372   1.437       .  S
C1366      H1371   1.080       .  S
C1366      C1367   1.406   1_655  A
C1367      C1368   1.414       .  A
C1368      N1369   1.437       .  S
N1369      H1373   1.046       .  S
N1369      H1374   1.045       .  S
N1372      H1375   1.041       .  S
N1372      H1376   1.045       .  S
C1377      H1384   1.084       .  S
C1377      C1378   1.404   1_545  A
C1377      C1382   1.408       .  A
C1378      C1379   1.415       .  A
C1379      C1380   1.400       .  A
C1379      N1386   1.439       .  S
C1380      H1385   1.083       .  S
C1380      C1381   1.407       .  A
C1381      C1382   1.413   1_565  A
C1382      N1383   1.431       .  S
N1383      H1387   1.045       .  S
N1383      H1388   1.046       .  S
N1386      H1389   1.042       .  S
N1386      H1390   1.046       .  S
C1391      H1398   1.083       .  S
C1391      C1392   1.405   1_655  A
C1391      C1396   1.396       .  A
C1392      C1393   1.416       .  A
C1393      C1394   1.412       .  A
C1393      N1400   1.436       .  S
C1394      H1399   1.084       .  S
C1394      C1395   1.406       .  A
C1395      C1396   1.415   1_455  A
C1396      N1397   1.435       .  S
N1397      H1401   1.043       .  S
N1397      H1402   1.042       .  S
N1400      H1403   1.045       .  S
N1400      H1404   1.046       .  S
C1405      H1412   1.082       .  S
C1405      C1406   1.398   1_545  A
C1405      C1410   1.402       .  A
C1406      C1407   1.412       .  A
C1407      C1408   1.411       .  A
C1407      N1414   1.437       .  S
C1408      H1413   1.083       .  S
C1408      C1409   1.408       .  A
C1409      C1410   1.420   1_565  A
C1410      N1411   1.438       .  S
N1411      H1415   1.046       .  S
N1411      H1416   1.046       .  S
N1414      H1417   1.043       .  S
N1414      H1418   1.045       .  S
C1419      H1426   1.081       .  S
C1419      C1420   1.408       .  A
C1419      C1424   1.396       .  A
C1420      C1421   1.421   1_655  A
C1421      C1422   1.408       .  A
C1421      N1428   1.437       .  S
C1422      H1427   1.084       .  S
C1422      C1423   1.404   1_455  A
C1423      C1424   1.403       .  A
C1424      N1425   1.433       .  S
N1425      H1429   1.046       .  S
N1425      H1430   1.045       .  S
N1428      H1431   1.043       .  S
N1428      H1432   1.045       .  S
C1433      H1440   1.080       .  S
C1433      C1434   1.406   1_655  A
C1433      C1438   1.397       .  A
C1434      C1435   1.417       .  A
C1435      C1436   1.414       .  A
C1435      N1442   1.437       .  S
C1436      H1441   1.083       .  S
C1436      C1437   1.405       .  A
C1437      C1438   1.415   1_455  A
C1438      N1439   1.440       .  S
N1439      H1443   1.046       .  S
N1439      H1444   1.041       .  S
N1442      H1445   1.045       .  S
N1442      H1446   1.046       .  S
C1447      H1454   1.083       .  S
C1447      C1448   1.406       .  A
C1447      C1452   1.395       .  A
C1448      C1449   1.416       .  A
C1449      C1450   1.414       .  A
C1449      N1456   1.436       .  S
C1450      H1455   1.084       .  S
C1450      C1451   1.406       .  A
C1451      C1452   1.413       .  A
C1452      N1453   1.432       .  S
N1453      H1457   1.042       .  S
N1453      H1458   1.044       .  S
N1456      H1459   1.045       .  S
N1456      H1460   1.046       .  S
C1461      H1468   1.081       .  S
C1461      C1462   1.410       .  A
C1461      C1466   1.408       .  A
C1462      C1463   1.423       .  A
C1463      C1464   1.398       .  A
C1463      N1470   1.432       .  S
C1464      H1469   1.083       .  S
C1464      C1465   1.398       .  A
C1465      C1466   1.408       .  A
C1466      N1467   1.437       .  S
N1467      H1471   1.045       .  S
N1467      H1472   1.043       .  S
N1470      H1473   1.045       .  S
N1470      H1474   1.044       .  S
C1475      H1482   1.080       .  S
C1475      C1476   1.409       .  A
C1475      C1480   1.402       .  A
C1476      C1477   1.420   1_455  A
C1477      C1478   1.406       .  A
C1477      N1484   1.437       .  S
C1478      H1483   1.083       .  S
C1478      C1479   1.404   1_655  A
C1479      C1480   1.406       .  A
C1480      N1481   1.438       .  S
N1481      H1485   1.045       .  S
N1481      H1486   1.045       .  S
N1484      H1487   1.043       .  S
N1484      H1488   1.045       .  S
C1489      H1496   1.079       .  S
C1489      C1490   1.409   1_545  A
C1489      C1494   1.402       .  A
C1490      C1491   1.416       .  A
C1491      C1492   1.410       .  A
C1491      N1498   1.438       .  S
C1492      H1497   1.081       .  S
C1492      C1493   1.404   1_565  A
C1493      C1494   1.407       .  A
C1494      N1495   1.437       .  S
N1495      H1499   1.045       .  S
N1495      H1500   1.042       .  S
N1498      H1501   1.045       .  S
N1498      H1502   1.046       .  S
C1503      H1510   1.082       .  S
C1503      C1504   1.408       .  A
C1503      C1508   1.410       .  A
C1504      C1505   1.417       .  A
C1505      C1506   1.400       .  A
C1505      N1512   1.433       .  S
C1506      H1511   1.083       .  S
C1506      C1507   1.398       .  A
C1507      C1508   1.410       .  A
C1508      N1509   1.437       .  S
N1509      H1513   1.045       .  S
N1509      H1514   1.043       .  S
N1512      H1515   1.046       .  S
N1512      H1516   1.046       .  S
C1517      H1524   1.084       .  S
C1517      C1518   1.410       .  A
C1517      C1522   1.414       .  A
C1518      C1519   1.426       .  A
C1519      C1520   1.391       .  A
C1519      N1526   1.430       .  S
C1520      H1525   1.082       .  S
C1520      C1521   1.395       .  A
C1521      C1522   1.412       .  A
C1522      N1523   1.437       .  S
N1523      H1527   1.045       .  S
N1523      H1528   1.044       .  S
N1526      H1529   1.045       .  S
N1526      H1530   1.043       .  S
C1531      H1538   1.083       .  S
C1531      C1532   1.406       .  A
C1531      C1536   1.405       .  A
C1532      C1533   1.410   1_565  A
C1533      C1534   1.402       .  A
C1533      N1540   1.438       .  S
C1534      H1539   1.083       .  S
C1534      C1535   1.407   1_545  A
C1535      C1536   1.418       .  A
C1536      N1537   1.432       .  S
N1537      H1541   1.041       .  S
N1537      H1542   1.045       .  S
N1540      H1543   1.045       .  S
N1540      H1544   1.045       .  S
C1545      H1552   1.083       .  S
C1545      C1546   1.407       .  A
C1545      C1550   1.408       .  A
C1546      C1547   1.422       .  A
C1547      C1548   1.397       .  A
C1547      N1554   1.432       .  S
C1548      H1553   1.084       .  S
C1548      C1549   1.400       .  A
C1549      C1550   1.411       .  A
C1550      N1551   1.436       .  S
N1551      H1555   1.045       .  S
N1551      H1556   1.042       .  S
N1554      H1557   1.045       .  S
N1554      H1558   1.045       .  S
C1559      H1566   1.082       .  S
C1559      C1560   1.408   1_545  A
C1559      C1564   1.408       .  A
C1560      C1561   1.422       .  A
C1561      C1562   1.395       .  A
C1561      N1568   1.433       .  S
C1562      H1567   1.081       .  S
C1562      C1563   1.399       .  A
C1563      C1564   1.410   1_565  A
C1564      N1565   1.436       .  S
N1565      H1569   1.045       .  S
N1565      H1570   1.041       .  S
N1568      H1571   1.045       .  S
N1568      H1572   1.044       .  S
C1573      H1580   1.083       .  S
C1573      C1574   1.410   1_545  A
C1573      C1578   1.406       .  A
C1574      C1575   1.417       .  A
C1575      C1576   1.401       .  A
C1575      N1582   1.435       .  S
C1576      H1581   1.081       .  S
C1576      C1577   1.397       .  A
C1577      C1578   1.414   1_565  A
C1578      N1579   1.437       .  S
N1579      H1583   1.045       .  S
N1579      H1584   1.043       .  S
N1582      H1585   1.046       .  S
N1582      H1586   1.046       .  S
C1587      H1594   1.083       .  S
C1587      C1588   1.405       .  A
C1587      C1592   1.406       .  A
C1588      C1589   1.408       .  A
C1589      C1590   1.403       .  A
C1589      N1596   1.437       .  S
C1590      H1595   1.083       .  S
C1590      C1591   1.408       .  A
C1591      C1592   1.419       .  A
C1592      N1593   1.436       .  S
N1593      H1597   1.045       .  S
N1593      H1598   1.043       .  S
N1596      H1599   1.045       .  S
N1596      H1600   1.045       .  S
C1601      H1608   1.084       .  S
C1601      C1602   1.408       .  A
C1601      C1606   1.413       .  A
C1602      C1603   1.427       .  A
C1603      C1604   1.391       .  A
C1603      N1610   1.430       .  S
C1604      H1609   1.083       .  S
C1604      C1605   1.395       .  A
C1605      C1606   1.413       .  A
C1606      N1607   1.436       .  S
N1607      H1611   1.045       .  S
N1607      H1612   1.044       .  S
N1610      H1613   1.043       .  S
N1610      H1614   1.045       .  S
C1615      H1622   1.084       .  S
C1615      C1616   1.402       .  A
C1615      C1620   1.402       .  A
C1616      C1617   1.420   1_455  A
C1617      C1618   1.406       .  A
C1617      N1624   1.437       .  S
C1618      H1623   1.083       .  S
C1618      C1619   1.406   1_655  A
C1619      C1620   1.417       .  A
C1620      N1621   1.438       .  S
N1621      H1625   1.046       .  S
N1621      H1626   1.046       .  S
N1624      H1627   1.041       .  S
N1624      H1628   1.045       .  S
C1629      H1636   1.080       .  S
C1629      C1630   1.407       .  A
C1629      C1634   1.401       .  A
C1630      C1631   1.418   1_455  A
C1631      C1632   1.409       .  A
C1631      N1638   1.437       .  S
C1632      H1637   1.080       .  S
C1632      C1633   1.403   1_655  A
C1633      C1634   1.416       .  A
C1634      N1635   1.439       .  S
N1635      H1639   1.046       .  S
N1635      H1640   1.042       .  S
N1638      H1641   1.045       .  S
N1638      H1642   1.046       .  S
C1643      H1650   1.084       .  S
C1643      C1644   1.399       .  A
C1643      C1648   1.397       .  A
C1644      C1645   1.409       .  A
C1645      C1646   1.406       .  A
C1645      N1652   1.429       .  S
C1646      H1651   1.083       .  S
C1646      C1647   1.406       .  A
C1647      C1648   1.424       .  A
C1648      N1649   1.432       .  S
N1649      H1653   1.045       .  S
N1649      H1654   1.045       .  S
N1652      H1655   1.045       .  S
N1652      H1656   1.046       .  S
C1657      H1664   1.083       .  S
C1657      C1658   1.406       .  A
C1657      C1662   1.398       .  A
C1658      C1659   1.419   1_554  A
C1659      C1660   1.409       .  A
C1659      N1666   1.438       .  S
C1660      H1665   1.082       .  S
C1660      C1661   1.407   1_556  A
C1661      C1662   1.408       .  A
C1662      N1663   1.433       .  S
N1663      H1667   1.045       .  S
N1663      H1668   1.046       .  S
N1666      H1669   1.043       .  S
N1666      H1670   1.046       .  S
C1671      H1678   1.084       .  S
C1671      C1672   1.407   1_556  A
C1671      C1676   1.412       .  A
C1672      C1673   1.417       .  A
C1673      C1674   1.396       .  A
C1673      N1680   1.432       .  S
C1674      H1679   1.084       .  S
C1674      C1675   1.399       .  A
C1675      C1676   1.411   1_554  A
C1676      N1677   1.431       .  S
N1677      H1681   1.046       .  S
N1677      H1682   1.045       .  S
N1680      H1683   1.046       .  S
N1680      H1684   1.046       .  S
C1685      H1692   1.079       .  S
C1685      C1686   1.409       .  A
C1685      C1690   1.399       .  A
C1686      C1687   1.420   1_565  A
C1687      C1688   1.403       .  A
C1687      N1694   1.432       .  S
C1688      H1693   1.083       .  S
C1688      C1689   1.404   1_545  A
C1689      C1690   1.412       .  A
C1690      N1691   1.438       .  S
N1691      H1695   1.046       .  S
N1691      H1696   1.041       .  S
N1694      H1697   1.046       .  S
N1694      H1698   1.044       .  S
C1699      H1706   1.083       .  S
C1699      C1700   1.407   1_545  A
C1699      C1704   1.407       .  A
C1700      C1701   1.423       .  A
C1701      C1702   1.403       .  A
C1701      N1708   1.438       .  S
C1702      H1707   1.083       .  S
C1702      C1703   1.397       .  A
C1703      C1704   1.407   1_565  A
C1704      N1705   1.431       .  S
N1705      H1709   1.045       .  S
N1705      H1710   1.046       .  S
N1708      H1711   1.046       .  S
N1708      H1712   1.046       .  S
C1713      H1720   1.083       .  S
C1713      C1714   1.412   1_554  A
C1713      C1718   1.406       .  A
C1714      C1715   1.425       .  A
C1715      C1716   1.401       .  A
C1715      N1722   1.429       .  S
C1716      H1721   1.084       .  S
C1716      C1717   1.401       .  A
C1717      C1718   1.404   1_556  A
C1718      N1719   1.438       .  S
N1719      H1723   1.045       .  S
N1719      H1724   1.045       .  S
N1722      H1725   1.043       .  S
N1722      H1726   1.045       .  S
C1727      H1734   1.080       .  S
C1727      C1728   1.409   1_554  A
C1727      C1732   1.401       .  A
C1728      C1729   1.420       .  A
C1729      C1730   1.406       .  A
C1729      N1736   1.437       .  S
C1730      H1735   1.083       .  S
C1730      C1731   1.404       .  A
C1731      C1732   1.405   1_556  A
C1732      N1733   1.437       .  S
N1733      H1737   1.045       .  S
N1733      H1738   1.045       .  S
N1736      H1739   1.043       .  S
N1736      H1740   1.045       .  S
C1741      H1748   1.082       .  S
C1741      C1742   1.406   1_545  A
C1741      C1746   1.400       .  A
C1742      C1743   1.419       .  A
C1743      C1744   1.408       .  A
C1743      N1750   1.437       .  S
C1744      H1749   1.084       .  S
C1744      C1745   1.402       .  A
C1745      C1746   1.417   1_565  A
C1746      N1747   1.436       .  S
N1747      H1751   1.046       .  S
N1747      H1752   1.040       .  S
N1750      H1753   1.045       .  S
N1750      H1754   1.046       .  S
C1755      H1762   1.083       .  S
C1755      C1756   1.408   1_545  A
C1755      C1760   1.398       .  A
C1756      C1757   1.421       .  A
C1757      C1758   1.409       .  A
C1757      N1764   1.438       .  S
C1758      H1763   1.083       .  S
C1758      C1759   1.405       .  A
C1759      C1760   1.403   1_565  A
C1760      N1761   1.432       .  S
N1761      H1765   1.046       .  S
N1761      H1766   1.045       .  S
N1764      H1767   1.043       .  S
N1764      H1768   1.046       .  S
C1769      H1776   1.083       .  S
C1769      C1770   1.406       .  A
C1769      C1774   1.398       .  A
C1770      C1771   1.422       .  A
C1771      C1772   1.410       .  A
C1771      N1778   1.438       .  S
C1772      H1777   1.084       .  S
C1772      C1773   1.405       .  A
C1773      C1774   1.406       .  A
C1774      N1775   1.431       .  S
N1775      H1779   1.045       .  S
N1775      H1780   1.046       .  S
N1778      H1781   1.043       .  S
N1778      H1782   1.046       .  S
C1783      H1790   1.082       .  S
C1783      C1784   1.409       .  A
C1783      C1788   1.408       .  A
C1784      C1785   1.423       .  A
C1785      C1786   1.397       .  A
C1785      N1792   1.432       .  S
C1786      H1791   1.082       .  S
C1786      C1787   1.398       .  A
C1787      C1788   1.409       .  A
C1788      N1789   1.437       .  S
N1789      H1793   1.045       .  S
N1789      H1794   1.043       .  S
N1792      H1795   1.045       .  S
N1792      H1796   1.045       .  S
C1797      H1804   1.083       .  S
C1797      C1798   1.408   1_545  A
C1797      C1802   1.407       .  A
C1798      C1799   1.424       .  A
C1799      C1800   1.396       .  A
C1799      N1806   1.432       .  S
C1800      H1805   1.084       .  S
C1800      C1801   1.398       .  A
C1801      C1802   1.408   1_565  A
C1802      N1803   1.431       .  S
N1803      H1807   1.045       .  S
N1803      H1808   1.046       .  S
N1806      H1809   1.045       .  S
N1806      H1810   1.045       .  S
C1811      H1818   1.082       .  S
C1811      C1812   1.408       .  A
C1811      C1816   1.408       .  A
C1812      C1813   1.419   1_565  A
C1813      C1814   1.403       .  A
C1813      N1820   1.438       .  S
C1814      H1819   1.084       .  S
C1814      C1815   1.400   1_545  A
C1815      C1816   1.410       .  A
C1816      N1817   1.436       .  S
N1817      H1821   1.046       .  S
N1817      H1822   1.041       .  S
N1820      H1823   1.046       .  S
N1820      H1824   1.046       .  S
C1825      H1832   1.083       .  S
C1825      C1826   1.405   1_554  A
C1825      C1830   1.404       .  A
C1826      C1827   1.406       .  A
C1827      C1828   1.401       .  A
C1827      N1834   1.438       .  S
C1828      H1833   1.083       .  S
C1828      C1829   1.409       .  A
C1829      C1830   1.419   1_556  A
C1830      N1831   1.432       .  S
N1831      H1835   1.041       .  S
N1831      H1836   1.045       .  S
N1834      H1837   1.046       .  S
N1834      H1838   1.045       .  S
C1839      H1846   1.084       .  S
C1839      C1840   1.407   1_554  A
C1839      C1844   1.415       .  A
C1840      C1841   1.422       .  A
C1841      C1842   1.391       .  A
C1841      N1848   1.432       .  S
C1842      H1847   1.084       .  S
C1842      C1843   1.399       .  A
C1843      C1844   1.416   1_556  A
C1844      N1845   1.436       .  S
N1845      H1849   1.045       .  S
N1845      H1850   1.044       .  S
N1848      H1851   1.045       .  S
N1848      H1852   1.042       .  S
C1853      H1860   1.083       .  S
C1853      C1854   1.404       .  A
C1853      C1858   1.405       .  A
C1854      C1855   1.408       .  A
C1855      C1856   1.402       .  A
C1855      N1862   1.438       .  S
C1856      H1861   1.083       .  S
C1856      C1857   1.408       .  A
C1857      C1858   1.420       .  A
C1858      N1859   1.432       .  S
N1859      H1863   1.045       .  S
N1859      H1864   1.041       .  S
N1862      H1865   1.046       .  S
N1862      H1866   1.045       .  S
C1867      H1874   1.084       .  S
C1867      C1868   1.400       .  A
C1867      C1872   1.404       .  A
C1868      C1869   1.418       .  A
C1869      C1870   1.406       .  A
C1869      N1876   1.437       .  S
C1870      H1875   1.083       .  S
C1870      C1871   1.406       .  A
C1871      C1872   1.418       .  A
C1872      N1873   1.438       .  S
N1873      H1877   1.046       .  S
N1873      H1878   1.046       .  S
N1876      H1879   1.041       .  S
N1876      H1880   1.045       .  S
C1881      H1888   1.083       .  S
C1881      C1882   1.400   1_545  A
C1881      C1886   1.405       .  A
C1882      C1883   1.412       .  A
C1883      C1884   1.404       .  A
C1883      N1890   1.429       .  S
C1884      H1889   1.084       .  S
C1884      C1885   1.402   1_565  A
C1885      C1886   1.421       .  A
C1886      N1887   1.437       .  S
N1887      H1891   1.046       .  S
N1887      H1892   1.046       .  S
N1890      H1893   1.046       .  S
N1890      H1894   1.046       .  S
C1895      H1902   1.082       .  S
C1895      C1896   1.403   1_565  A
C1895      C1900   1.403       .  A
C1896      C1897   1.409       .  A
C1897      C1898   1.404       .  A
C1897      N1904   1.434       .  S
C1898      H1903   1.083       .  S
C1898      C1899   1.409   1_545  A
C1899      C1900   1.422       .  A
C1900      N1901   1.430       .  S
N1901      H1905   1.043       .  S
N1901      H1906   1.045       .  S
N1904      H1907   1.043       .  S
N1904      H1908   1.045       .  S
C1909      H1916   1.083       .  S
C1909      C1910   1.407       .  A
C1909      C1914   1.399       .  A
C1910      C1911   1.422       .  A
C1911      C1912   1.409       .  A
C1911      N1918   1.438       .  S
C1912      H1917   1.084       .  S
C1912      C1913   1.404       .  A
C1913      C1914   1.405       .  A
C1914      N1915   1.432       .  S
N1915      H1919   1.045       .  S
N1915      H1920   1.046       .  S
N1918      H1921   1.043       .  S
N1918      H1922   1.046       .  S
C1923      H1930   1.083       .  S
C1923      C1924   1.409       .  A
C1923      C1928   1.412       .  A
C1924      C1925   1.422       .  A
C1925      C1926   1.402       .  A
C1925      N1932   1.438       .  S
C1926      H1931   1.083       .  S
C1926      C1927   1.398       .  A
C1927      C1928   1.410       .  A
C1928      N1929   1.437       .  S
N1929      H1933   1.045       .  S
N1929      H1934   1.043       .  S
N1932      H1935   1.046       .  S
N1932      H1936   1.046       .  S
C1937      H1944   1.084       .  S
C1937      C1938   1.400   1_554  A
C1937      C1942   1.413       .  A
C1938      C1939   1.414       .  A
C1939      C1940   1.395       .  A
C1939      N1946   1.442       .  S
C1940      H1945   1.079       .  S
C1940      C1941   1.414       .  A
C1941      C1942   1.424   1_556  A
C1942      N1943   1.427       .  S
N1943      H1947   1.046       .  S
N1943      H1948   1.045       .  S
N1946      H1949   1.040       .  S
N1946      H1950   1.047       .  S
C1951      H1958   1.084       .  S
C1951      C1952   1.403   1_554  A
C1951      C1956   1.407       .  A
C1952      C1953   1.405       .  A
C1953      C1954   1.401       .  A
C1953      N1960   1.438       .  S
C1954      H1959   1.080       .  S
C1954      C1955   1.409       .  A
C1955      C1956   1.422   1_556  A
C1956      N1957   1.439       .  S
N1957      H1961   1.046       .  S
N1957      H1962   1.043       .  S
N1960      H1963   1.045       .  S
N1960      H1964   1.045       .  S
C1965      H1972   1.082       .  S
C1965      C1966   1.398       .  A
C1965      C1970   1.401       .  A
C1966      C1967   1.411       .  A
C1967      C1968   1.412       .  A
C1967      N1974   1.437       .  S
C1968      H1973   1.083       .  S
C1968      C1969   1.407       .  A
C1969      C1970   1.420       .  A
C1970      N1971   1.438       .  S
N1971      H1975   1.046       .  S
N1971      H1976   1.046       .  S
N1974      H1977   1.044       .  S
N1974      H1978   1.045       .  S
C1979      H1986   1.082       .  S
C1979      C1980   1.408       .  A
C1979      C1984   1.407       .  A
C1980      C1981   1.420       .  A
C1981      C1982   1.406       .  A
C1981      N1988   1.438       .  S
C1982      H1987   1.083       .  S
C1982      C1983   1.400       .  A
C1983      C1984   1.408       .  A
C1984      N1985   1.435       .  S
N1985      H1989   1.045       .  S
N1985      H1990   1.042       .  S
N1988      H1991   1.046       .  S
N1988      H1992   1.046       .  S
C1993      H2000   1.084       .  S
C1993      C1994   1.409   1_554  A
C1993      C1998   1.415       .  A
C1994      C1995   1.424       .  A
C1995      C1996   1.390       .  A
C1995      N2002   1.431       .  S
C1996      H2001   1.085       .  S
C1996      C1997   1.398       .  A
C1997      C1998   1.414   1_556  A
C1998      N1999   1.437       .  S
N1999      H2003   1.045       .  S
N1999      H2004   1.044       .  S
N2002      H2005   1.045       .  S
N2002      H2006   1.042       .  S
C2007      H2014   1.083       .  S
C2007      C2008   1.409       .  A
C2007      C2012   1.400       .  A
C2008      C2009   1.421   1_556  A
C2009      C2010   1.407       .  A
C2009      N2016   1.438       .  S
C2010      H2015   1.083       .  S
C2010      C2011   1.404   1_554  A
C2011      C2012   1.404       .  A
C2012      N2013   1.431       .  S
N2013      H2017   1.045       .  S
N2013      H2018   1.046       .  S
N2016      H2019   1.043       .  S
N2016      H2020   1.046       .  S
C2021      H2028   1.084       .  S
C2021      C2022   1.399       .  A
C2021      C2026   1.403       .  A
C2022      C2023   1.410   1_455  A
C2023      C2024   1.406       .  A
C2023      N2030   1.429       .  S
C2024      H2029   1.084       .  S
C2024      C2025   1.404   1_655  A
C2025      C2026   1.422       .  A
C2026      N2027   1.437       .  S
N2027      H2031   1.046       .  S
N2027      H2032   1.046       .  S
N2030      H2033   1.046       .  S
N2030      H2034   1.045       .  S
C2035      H2042   1.084       .  S
C2035      C2036   1.399       .  A
C2035      C2040   1.404       .  A
C2036      C2037   1.411   1_455  A
C2037      C2038   1.408       .  A
C2037      N2044   1.437       .  S
C2038      H2043   1.083       .  S
C2038      C2039   1.407   1_655  A
C2039      C2040   1.419       .  A
C2040      N2041   1.438       .  S
N2041      H2045   1.046       .  S
N2041      H2046   1.046       .  S
N2044      H2047   1.043       .  S
N2044      H2048   1.045       .  S
C2049      H2056   1.083       .  S
C2049      C2050   1.408   1_554  A
C2049      C2054   1.410       .  A
C2050      C2051   1.420       .  A
C2051      C2052   1.404       .  A
C2051      N2058   1.438       .  S
C2052      H2057   1.084       .  S
C2052      C2053   1.399       .  A
C2053      C2054   1.410   1_556  A
C2054      N2055   1.437       .  S
N2055      H2059   1.045       .  S
N2055      H2060   1.043       .  S
N2058      H2061   1.046       .  S
N2058      H2062   1.046       .  S
C2063      H2070   1.083       .  S
C2063      C2064   1.405   1_455  A
C2063      C2068   1.409       .  A
C2064      C2065   1.409       .  A
C2065      C2066   1.395       .  A
C2065      N2072   1.431       .  S
C2066      H2071   1.080       .  S
C2066      C2067   1.408       .  A
C2067      C2068   1.422   1_655  A
C2068      N2069   1.439       .  S
N2069      H2073   1.046       .  S
N2069      H2074   1.043       .  S
N2072      H2075   1.045       .  S
N2072      H2076   1.044       .  S
C2077      H2084   1.079       .  S
C2077      C2078   1.409       .  A
C2077      C2082   1.403       .  A
C2078      C2079   1.420   1_556  A
C2079      C2080   1.404       .  A
C2079      N2086   1.432       .  S
C2080      H2085   1.083       .  S
C2080      C2081   1.403   1_554  A
C2081      C2082   1.406       .  A
C2082      N2083   1.437       .  S
N2083      H2087   1.045       .  S
N2083      H2088   1.045       .  S
N2086      H2089   1.045       .  S
N2086      H2090   1.044       .  S
C2091      H2098   1.084       .  S
C2091      C2092   1.399       .  A
C2091      C2096   1.402       .  A
C2092      C2093   1.410   1_455  A
C2093      C2094   1.410       .  A
C2093      N2100   1.431       .  S
C2094      H2099   1.084       .  S
C2094      C2095   1.407   1_655  A
C2095      C2096   1.421       .  A
C2096      N2097   1.438       .  S
N2097      H2101   1.046       .  S
N2097      H2102   1.046       .  S
N2100      H2103   1.046       .  S
N2100      H2104   1.045       .  S
C2105      H2112   1.083       .  S
C2105      C2106   1.407       .  A
C2105      C2110   1.411       .  A
C2106      C2107   1.406       .  A
C2107      C2108   1.395       .  A
C2107      N2114   1.431       .  S
C2108      H2113   1.082       .  S
C2108      C2109   1.406       .  A
C2109      C2110   1.421       .  A
C2110      N2111   1.438       .  S
N2111      H2115   1.046       .  S
N2111      H2116   1.043       .  S
N2114      H2117   1.046       .  S
N2114      H2118   1.045       .  S
C2119      H2126   1.081       .  S
C2119      C2120   1.410       .  A
C2119      C2124   1.399       .  A
C2120      C2121   1.421       .  A
C2121      C2122   1.409       .  A
C2121      N2128   1.437       .  S
C2122      H2127   1.083       .  S
C2122      C2123   1.405       .  A
C2123      C2124   1.403       .  A
C2124      N2125   1.432       .  S
N2125      H2129   1.046       .  S
N2125      H2130   1.045       .  S
N2128      H2131   1.043       .  S
N2128      H2132   1.045       .  S
C2133      H2140   1.081       .  S
C2133      C2134   1.398   1_655  A
C2133      C2138   1.392       .  A
C2134      C2135   1.409       .  A
C2135      C2136   1.411       .  A
C2135      N2142   1.431       .  S
C2136      H2141   1.083       .  S
C2136      C2137   1.408       .  A
C2137      C2138   1.424   1_455  A
C2138      N2139   1.433       .  S
N2139      H2143   1.045       .  S
N2139      H2144   1.045       .  S
N2142      H2145   1.045       .  S
N2142      H2146   1.046       .  S
C2147      H2154   1.079       .  S
C2147      C2148   1.410       .  A
C2147      C2152   1.401       .  A
C2148      C2149   1.420   1_655  A
C2149      C2150   1.403       .  A
C2149      N2156   1.432       .  S
C2150      H2155   1.083       .  S
C2150      C2151   1.403   1_455  A
C2151      C2152   1.404       .  A
C2152      N2153   1.438       .  S
N2153      H2157   1.045       .  S
N2153      H2158   1.045       .  S
N2156      H2159   1.045       .  S
N2156      H2160   1.044       .  S
C2161      H2168   1.081       .  S
C2161      C2162   1.408       .  A
C2161      C2166   1.401       .  A
C2162      C2163   1.419       .  A
C2163      C2164   1.406       .  A
C2163      N2170   1.437       .  S
C2164      H2169   1.083       .  S
C2164      C2165   1.404       .  A
C2165      C2166   1.408       .  A
C2166      N2167   1.439       .  S
N2167      H2171   1.045       .  S
N2167      H2172   1.045       .  S
N2170      H2173   1.043       .  S
N2170      H2174   1.046       .  S
C2175      H2182   1.084       .  S
C2175      C2176   1.404       .  A
C2175      C2180   1.407       .  A
C2176      C2177   1.419       .  A
C2177      C2178   1.401       .  A
C2177      N2184   1.431       .  S
C2178      H2183   1.084       .  S
C2178      C2179   1.399       .  A
C2179      C2180   1.411       .  A
C2180      N2181   1.428       .  S
N2181      H2185   1.046       .  S
N2181      H2186   1.045       .  S
N2184      H2187   1.046       .  S
N2184      H2188   1.046       .  S
C2189      H2196   1.083       .  S
C2189      C2190   1.409       .  A
C2189      C2194   1.409       .  A
C2190      C2191   1.419   1_556  A
C2191      C2192   1.400       .  A
C2191      N2198   1.438       .  S
C2192      H2197   1.084       .  S
C2192      C2193   1.401   1_554  A
C2193      C2194   1.416       .  A
C2194      N2195   1.437       .  S
N2195      H2199   1.045       .  S
N2195      H2200   1.043       .  S
N2198      H2201   1.046       .  S
N2198      H2202   1.046       .  S
C2203      H2210   1.084       .  S
C2203      C2204   1.408   1_556  A
C2203      C2208   1.415       .  A
C2204      C2205   1.422       .  A
C2205      C2206   1.390       .  A
C2205      N2212   1.432       .  S
C2206      H2211   1.084       .  S
C2206      C2207   1.399   1_554  A
C2207      C2208   1.414       .  A
C2208      N2209   1.437       .  S
N2209      H2213   1.045       .  S
N2209      H2214   1.044       .  S
N2212      H2215   1.045       .  S
N2212      H2216   1.042       .  S
C2217      H2224   1.081       .  S
C2217      C2218   1.407       .  A
C2217      C2222   1.400       .  A
C2218      C2219   1.422       .  A
C2219      C2220   1.409       .  A
C2219      N2226   1.437       .  S
C2220      H2225   1.084       .  S
C2220      C2221   1.404       .  A
C2221      C2222   1.409       .  A
C2222      N2223   1.439       .  S
N2223      H2227   1.045       .  S
N2223      H2228   1.045       .  S
N2226      H2229   1.043       .  S
N2226      H2230   1.046       .  S
C2231      H2238   1.084       .  S
C2231      C2232   1.405   1_655  A
C2231      C2236   1.414       .  A
C2232      C2233   1.421       .  A
C2233      C2234   1.392       .  A
C2233      N2240   1.432       .  S
C2234      H2239   1.083       .  S
C2234      C2235   1.401       .  A
C2235      C2236   1.418   1_455  A
C2236      N2237   1.435       .  S
N2237      H2241   1.045       .  S
N2237      H2242   1.043       .  S
N2240      H2243   1.045       .  S
N2240      H2244   1.042       .  S
C2245      H2252   1.081       .  S
C2245      C2246   1.404       .  A
C2245      C2250   1.407       .  A
C2246      C2247   1.402   1_455  A
C2247      C2248   1.398       .  A
C2247      N2254   1.432       .  S
C2248      H2253   1.081       .  S
C2248      C2249   1.409   1_655  A
C2249      C2250   1.421       .  A
C2250      N2251   1.439       .  S
N2251      H2255   1.046       .  S
N2251      H2256   1.043       .  S
N2254      H2257   1.046       .  S
N2254      H2258   1.045       .  S
C2259      H2266   1.084       .  S
C2259      C2260   1.405       .  A
C2259      C2264   1.416       .  A
C2260      C2261   1.416       .  A
C2261      C2262   1.391       .  A
C2261      N2268   1.434       .  S
C2262      H2267   1.081       .  S
C2262      C2263   1.407       .  A
C2263      C2264   1.420       .  A
C2264      N2265   1.434       .  S
N2265      H2269   1.045       .  S
N2265      H2270   1.045       .  S
N2268      H2271   1.046       .  S
N2268      H2272   1.042       .  S
C2273      H2280   1.083       .  S
C2273      C2274   1.408   1_554  A
C2273      C2278   1.399       .  A
C2274      C2275   1.417       .  A
C2275      C2276   1.412       .  A
C2275      N2282   1.436       .  S
C2276      H2281   1.083       .  S
C2276      C2277   1.403   1_556  A
C2277      C2278   1.403       .  A
C2278      N2279   1.432       .  S
N2279      H2283   1.045       .  S
N2279      H2284   1.046       .  S
N2282      H2285   1.045       .  S
N2282      H2286   1.046       .  S
C2287      H2294   1.081       .  S
C2287      C2288   1.408       .  A
C2287      C2292   1.398       .  A
C2288      C2289   1.420   1_554  A
C2289      C2290   1.407       .  A
C2289      N2296   1.437       .  S
C2290      H2295   1.083       .  S
C2290      C2291   1.405   1_556  A
C2291      C2292   1.404       .  A
C2292      N2293   1.432       .  S
N2293      H2297   1.046       .  S
N2293      H2298   1.045       .  S
N2296      H2299   1.043       .  S
N2296      H2300   1.045       .  S
C2301      H2308   1.084       .  S
C2301      C2302   1.408       .  A
C2301      C2306   1.412       .  A
C2302      C2303   1.425       .  A
C2303      C2304   1.392       .  A
C2303      N2310   1.430       .  S
C2304      H2309   1.085       .  S
C2304      C2305   1.396       .  A
C2305      C2306   1.413       .  A
C2306      N2307   1.436       .  S
N2307      H2311   1.045       .  S
N2307      H2312   1.043       .  S
N2310      H2313   1.044       .  S
N2310      H2314   1.045       .  S
C2315      H2322   1.080       .  S
C2315      C2316   1.410       .  A
C2315      C2320   1.400       .  A
C2316      C2317   1.418       .  A
C2317      C2318   1.412       .  A
C2317      N2324   1.437       .  S
C2318      H2323   1.083       .  S
C2318      C2319   1.405       .  A
C2319      C2320   1.402       .  A
C2320      N2321   1.432       .  S
N2321      H2325   1.045       .  S
N2321      H2326   1.046       .  S
N2324      H2327   1.045       .  S
N2324      H2328   1.046       .  S
C2329      H2336   1.084       .  S
C2329      C2330   1.406       .  A
C2329      C2334   1.412       .  A
C2330      C2331   1.422       .  A
C2331      C2332   1.392       .  A
C2331      N2338   1.433       .  S
C2332      H2337   1.082       .  S
C2332      C2333   1.400       .  A
C2333      C2334   1.413       .  A
C2334      N2335   1.430       .  S
N2335      H2339   1.046       .  S
N2335      H2340   1.045       .  S
N2338      H2341   1.046       .  S
N2338      H2342   1.042       .  S
C2343      H2350   1.084       .  S
C2343      C2344   1.409       .  A
C2343      C2348   1.407       .  A
C2344      C2345   1.420       .  A
C2345      C2346   1.407       .  A
C2345      N2352   1.435       .  S
C2346      H2351   1.083       .  S
C2346      C2347   1.400       .  A
C2347      C2348   1.407       .  A
C2348      N2349   1.430       .  S
N2349      H2353   1.045       .  S
N2349      H2354   1.046       .  S
N2352      H2355   1.046       .  S
N2352      H2356   1.046       .  S
C2357      H2364   1.084       .  S
C2357      C2358   1.408       .  A
C2357      C2362   1.407       .  A
C2358      C2359   1.421       .  A
C2359      C2360   1.400       .  A
C2359      N2366   1.435       .  S
C2360      H2365   1.085       .  S
C2360      C2361   1.396       .  A
C2361      C2362   1.417       .  A
C2362      N2363   1.438       .  S
N2363      H2367   1.045       .  S
N2363      H2368   1.043       .  S
N2366      H2369   1.046       .  S
N2366      H2370   1.046       .  S
C2371      H2378   1.081       .  S
C2371      C2372   1.397       .  A
C2371      C2376   1.395       .  A
C2372      C2373   1.407       .  A
C2373      C2374   1.407       .  A
C2373      N2380   1.431       .  S
C2374      H2379   1.083       .  S
C2374      C2375   1.408       .  A
C2375      C2376   1.425       .  A
C2376      N2377   1.433       .  S
N2377      H2381   1.045       .  S
N2377      H2382   1.045       .  S
N2380      H2383   1.045       .  S
N2380      H2384   1.046       .  S
C2385      H2392   1.083       .  S
C2385      C2386   1.406       .  A
C2385      C2390   1.394       .  A
C2386      C2387   1.420       .  A
C2387      C2388   1.409       .  A
C2387      N2394   1.438       .  S
C2388      H2393   1.083       .  S
C2388      C2389   1.407       .  A
C2389      C2390   1.414       .  A
C2390      N2391   1.433       .  S
N2391      H2395   1.043       .  S
N2391      H2396   1.044       .  S
N2394      H2397   1.043       .  S
N2394      H2398   1.046       .  S
C2399      H2406   1.084       .  S
C2399      C2400   1.408       .  A
C2399      C2404   1.404       .  A
C2400      C2401   1.419       .  A
C2401      C2402   1.405       .  A
C2401      N2408   1.435       .  S
C2402      H2407   1.084       .  S
C2402      C2403   1.400       .  A
C2403      C2404   1.417       .  A
C2404      N2405   1.437       .  S
N2405      H2409   1.045       .  S
N2405      H2410   1.041       .  S
N2408      H2411   1.046       .  S
N2408      H2412   1.046       .  S
C2413      H2420   1.084       .  S
C2413      C2414   1.408       .  A
C2413      C2418   1.412       .  A
C2414      C2415   1.419       .  A
C2415      C2416   1.399       .  A
C2415      N2422   1.430       .  S
C2416      H2421   1.085       .  S
C2416      C2417   1.396       .  A
C2417      C2418   1.412       .  A
C2418      N2419   1.437       .  S
N2419      H2423   1.045       .  S
N2419      H2424   1.044       .  S
N2422      H2425   1.046       .  S
N2422      H2426   1.046       .  S
C2427      H2434   1.083       .  S
C2427      C2428   1.407       .  A
C2427      C2432   1.403       .  A
C2428      C2429   1.416       .  A
C2429      C2430   1.411       .  A
C2429      N2436   1.436       .  S
C2430      H2435   1.083       .  S
C2430      C2431   1.404       .  A
C2431      C2432   1.409       .  A
C2432      N2433   1.438       .  S
N2433      H2437   1.046       .  S
N2433      H2438   1.044       .  S
N2436      H2439   1.045       .  S
N2436      H2440   1.046       .  S
C2441      H2448   1.083       .  S
C2441      C2442   1.407       .  A
C2441      C2446   1.397       .  A
C2442      C2443   1.417       .  A
C2443      C2444   1.413       .  A
C2443      N2450   1.436       .  S
C2444      H2449   1.084       .  S
C2444      C2445   1.405       .  A
C2445      C2446   1.414       .  A
C2446      N2447   1.436       .  S
N2447      H2451   1.045       .  S
N2447      H2452   1.040       .  S
N2450      H2453   1.045       .  S
N2450      H2454   1.046       .  S
C2455      H2462   1.079       .  S
C2455      C2456   1.406       .  A
C2455      C2460   1.396       .  A
C2456      C2457   1.421       .  A
C2457      C2458   1.411       .  A
C2457      N2464   1.432       .  S
C2458      H2463   1.084       .  S
C2458      C2459   1.405       .  A
C2459      C2460   1.406       .  A
C2460      N2461   1.430       .  S
N2461      H2465   1.046       .  S
N2461      H2466   1.046       .  S
N2464      H2467   1.045       .  S
N2464      H2468   1.044       .  S
C2469      H2476   1.084       .  S
C2469      C2470   1.404       .  A
C2469      C2474   1.406       .  A
C2470      C2471   1.420       .  A
C2471      C2472   1.403       .  A
C2471      N2478   1.439       .  S
C2472      H2477   1.084       .  S
C2472      C2473   1.400       .  A
C2473      C2474   1.410       .  A
C2474      N2475   1.430       .  S
N2475      H2479   1.045       .  S
N2475      H2480   1.046       .  S
N2478      H2481   1.046       .  S
N2478      H2482   1.046       .  S
C2483      H2490   1.084       .  S
C2483      C2484   1.407       .  A
C2483      C2488   1.414       .  A
C2484      C2485   1.422       .  A
C2485      C2486   1.391       .  A
C2485      N2492   1.431       .  S
C2486      H2491   1.084       .  S
C2486      C2487   1.399       .  A
C2487      C2488   1.416       .  A
C2488      N2489   1.437       .  S
N2489      H2493   1.045       .  S
N2489      H2494   1.043       .  S
N2492      H2495   1.045       .  S
N2492      H2496   1.043       .  S
C2497      H2504   1.083       .  S
C2497      C2498   1.409       .  A
C2497      C2502   1.406       .  A
C2498      C2499   1.422       .  A
C2499      C2500   1.399       .  A
C2499      N2506   1.432       .  S
C2500      H2505   1.083       .  S
C2500      C2501   1.401       .  A
C2501      C2502   1.407       .  A
C2502      N2503   1.430       .  S
N2503      H2507   1.046       .  S
N2503      H2508   1.045       .  S
N2506      H2509   1.046       .  S
N2506      H2510   1.044       .  S
C2511      H2518   1.084       .  S
C2511      C2512   1.405       .  A
C2511      C2516   1.407       .  A
C2512      C2513   1.420       .  A
C2513      C2514   1.401       .  A
C2513      N2520   1.439       .  S
C2514      H2519   1.084       .  S
C2514      C2515   1.399       .  A
C2515      C2516   1.411       .  A
C2516      N2517   1.430       .  S
N2517      H2521   1.045       .  S
N2517      H2522   1.046       .  S
N2520      H2523   1.046       .  S
N2520      H2524   1.046       .  S
C2525      H2532   1.081       .  S
C2525      C2526   1.407       .  A
C2525      C2530   1.396       .  A
C2526      C2527   1.420       .  A
C2527      C2528   1.409       .  A
C2527      N2534   1.437       .  S
C2528      H2533   1.083       .  S
C2528      C2529   1.406       .  A
C2529      C2530   1.405       .  A
C2530      N2531   1.431       .  S
N2531      H2535   1.046       .  S
N2531      H2536   1.045       .  S
N2534      H2537   1.043       .  S
N2534      H2538   1.045       .  S
C2539      H2546   1.083       .  S
C2539      C2540   1.407       .  A
C2539      C2544   1.397       .  A
C2540      C2541   1.420       .  A
C2541      C2542   1.409       .  A
C2541      N2548   1.438       .  S
C2542      H2547   1.083       .  S
C2542      C2543   1.406       .  A
C2543      C2544   1.406       .  A
C2544      N2545   1.432       .  S
N2545      H2549   1.045       .  S
N2545      H2550   1.046       .  S
N2548      H2551   1.043       .  S
N2548      H2552   1.046       .  S
C2553      H2560   1.080       .  S
C2553      C2554   1.408       .  A
C2553      C2558   1.391       .  A
C2554      C2555   1.420       .  A
C2555      C2556   1.409       .  A
C2555      N2562   1.437       .  S
C2556      H2561   1.084       .  S
C2556      C2557   1.407       .  A
C2557      C2558   1.410       .  A
C2558      N2559   1.432       .  S
N2559      H2563   1.043       .  S
N2559      H2564   1.044       .  S
N2562      H2565   1.043       .  S
N2562      H2566   1.045       .  S
C2567      H2574   1.079       .  S
C2567      C2568   1.407       .  A
C2567      C2572   1.398       .  A
C2568      C2569   1.418       .  A
C2569      C2570   1.413       .  A
C2569      N2576   1.437       .  S
C2570      H2575   1.083       .  S
C2570      C2571   1.405       .  A
C2571      C2572   1.414       .  A
C2572      N2573   1.439       .  S
N2573      H2577   1.046       .  S
N2573      H2578   1.040       .  S
N2576      H2579   1.045       .  S
N2576      H2580   1.046       .  S
C2581      H2588   1.083       .  S
C2581      C2582   1.407       .  A
C2581      C2586   1.396       .  A
C2582      C2583   1.420       .  A
C2583      C2584   1.410       .  A
C2583      N2590   1.438       .  S
C2584      H2589   1.083       .  S
C2584      C2585   1.407       .  A
C2585      C2586   1.415       .  A
C2586      N2587   1.437       .  S
N2587      H2591   1.046       .  S
N2587      H2592   1.039       .  S
N2590      H2593   1.043       .  S
N2590      H2594   1.046       .  S
C2595      H2602   1.084       .  S
C2595      C2596   1.406       .  A
C2595      C2600   1.405       .  A
C2596      C2597   1.420       .  A
C2597      C2598   1.401       .  A
C2597      N2604   1.438       .  S
C2598      H2603   1.084       .  S
C2598      C2599   1.398       .  A
C2599      C2600   1.418       .  A
C2600      N2601   1.437       .  S
N2601      H2605   1.045       .  S
N2601      H2606   1.042       .  S
N2604      H2607   1.046       .  S
N2604      H2608   1.046       .  S
C2609      H2616   1.083       .  S
C2609      C2610   1.407       .  A
C2609      C2614   1.400       .  A
C2610      C2611   1.421       .  A
C2611      C2612   1.408       .  A
C2611      N2618   1.438       .  S
C2612      H2617   1.084       .  S
C2612      C2613   1.405       .  A
C2613      C2614   1.406       .  A
C2614      N2615   1.432       .  S
N2615      H2619   1.045       .  S
N2615      H2620   1.046       .  S
N2618      H2621   1.043       .  S
N2618      H2622   1.046       .  S
C2623      H2630   1.084       .  S
C2623      C2624   1.406       .  A
C2623      C2628   1.407       .  A
C2624      C2625   1.418       .  A
C2625      C2626   1.404       .  A
C2625      N2632   1.438       .  S
C2626      H2631   1.084       .  S
C2626      C2627   1.402       .  A
C2627      C2628   1.412       .  A
C2628      N2629   1.431       .  S
N2629      H2633   1.046       .  S
N2629      H2634   1.046       .  S
N2632      H2635   1.046       .  S
N2632      H2636   1.046       .  S
C2637      H2644   1.083       .  S
C2637      C2638   1.399       .  A
C2637      C2642   1.402       .  A
C2638      C2639   1.412       .  A
C2639      C2640   1.410       .  A
C2639      N2646   1.437       .  S
C2640      H2645   1.083       .  S
C2640      C2641   1.406       .  A
C2641      C2642   1.420       .  A
C2642      N2643   1.438       .  S
N2643      H2647   1.046       .  S
N2643      H2648   1.046       .  S
N2646      H2649   1.043       .  S
N2646      H2650   1.045       .  S
C2651      H2658   1.083       .  S
C2651      C2652   1.407       .  A
C2651      C2656   1.394       .  A
C2652      C2653   1.420       .  A
C2653      C2654   1.409       .  A
C2653      N2660   1.438       .  S
C2654      H2659   1.083       .  S
C2654      C2655   1.406       .  A
C2655      C2656   1.413       .  A
C2656      N2657   1.432       .  S
N2657      H2661   1.043       .  S
N2657      H2662   1.045       .  S
N2660      H2663   1.043       .  S
N2660      H2664   1.046       .  S
