geometry optimzed in LAMMPS
_audit_creation_date              2020-12-01 
_audit_creation_method            'lammps2cif' 
_symmetry_space_group_name_H-M    'P1' 
_symmetry_Int_Tables_number       1 
_symmetry_cell_setting            triclinic 
loop_ 
_symmetry_equiv_pos_as_xyz 
  x,y,z 
_cell_length_a                    32.29579112 
_cell_length_b                    32.32505290752495 
_cell_length_c                    33.12904971466461 
_cell_angle_alpha                 93.94026943043126 
_cell_angle_beta                  84.56055528135475 
_cell_angle_gamma                 92.51956175237282 
loop_ 
_atom_site_label 
_atom_site_type_symbol 
_atom_site_fract_x 
_atom_site_fract_y 
_atom_site_fract_z 
_atom_site_charge 
C1          C  0.33240961  0.40251889  0.34029974     0.85100
C2          C  0.30605040  0.37482472  0.37002766    -0.55100
C3          C  0.32692928  0.35029850  0.39304705     0.08000
C4          C  0.37588809  0.35423426  0.38108305     0.19000
C5          C  0.36383951  0.42596987  0.36694528    -0.55900
C6          C  0.38671623  0.40220373  0.38927283     0.08100
C7          C  0.35920744  0.37114456  0.31310185    -0.55400
C8          C  0.38278495  0.34543298  0.33243257     0.08700
H9          H  0.27266531  0.37287328  0.37130624     0.13200
H10         H  0.39405097  0.33414425  0.39812896    -0.01000
H11         H  0.36707188  0.45961577  0.36860543     0.13500
H12         H  0.35988499  0.36986849  0.28020302     0.13300
C13         C  0.15287379  0.08618595  0.14565463     0.85100
C14         C  0.12461935  0.11861592  0.17063609    -0.55100
C15         C  0.10109929  0.14191976  0.14890995     0.08000
C16         C  0.10855193  0.13003630  0.10158312     0.19000
C17         C  0.12236228  0.05981961  0.11965152    -0.55900
C18         C  0.09940290  0.08129623  0.09520820     0.08100
C19         C  0.17890187  0.11246107  0.11450948    -0.55400
C20         C  0.15698445  0.13631197  0.09156729     0.08700
H21         H  0.12338417  0.12297005  0.20350767     0.13200
H22         H  0.09030745  0.14853332  0.08304106    -0.01000
H23         H  0.11914455  0.02648264  0.12100489     0.13500
H24         H  0.21271364  0.11291209  0.11162521     0.13300
O25         O  0.02295117  0.44939070  0.41204104    -0.81500
O26         O  0.45862232  0.47913268  0.08660557    -0.81500
O27         O  0.06393177  0.46385298  0.49866160    -0.81600
O28         O  0.42028279  0.41802733  0.45413583    -0.81500
O29         O  0.03450584  0.46328902  0.05039061    -0.81600
O30         O  0.43846322  0.45573371  0.40315553    -0.81500
O31         O  0.42948778  0.43446220  0.04253538    -0.81500
O32         O  0.07209875  0.48824678  0.44204415    -0.81600
C33         C  0.06096861  0.45855830  0.41610190     1.08200
C34         C  0.44285788  0.44331521  0.07714529     1.08100
C35         C  0.06972130  0.46154144  0.03064937     1.08200
C36         C  0.41789281  0.42472473  0.41691460     1.08100
O37         O  0.45422053  0.04901696  0.45683590    -0.81500
O38         O  0.03056747  0.05017863  0.07868462    -0.81600
O39         O  0.03378460  0.05857633  0.44664528    -0.81500
O40         O  0.40210557  0.51656586  0.04909603    -0.81500
O41         O  0.45799956  0.55813273  0.05442314    -0.81600
O42         O  0.51088759  0.02468321  0.39700528    -0.81500
O43         O  0.39617682  0.01234073  0.46750296    -0.81500
O44         O  0.08224107  0.04424330  0.02884110    -0.81600
Co45       Co  0.48689435  0.99938505  0.44428554     1.51500
Co46       Co  0.99846047  0.51162567  0.04931803     1.51700
Co47       Co  0.03172743  0.01756991  0.49081261     1.51600
Co48       Co  0.41513178  0.47378493  0.00385225     1.51500
O49         O  0.48269114  0.48590735  0.48288393    -1.43500
C50         C  0.41544073  0.04539000  0.45696119     1.08100
C51         C  0.06931908  0.05825339  0.06596314     1.08200
C52         C  0.02651849  0.05372492  0.40878569     1.08100
C53         C  0.41621233  0.04196616  0.04760921     1.08100
O54         O  0.30112330  0.28465094  0.42452708    -0.81500
O55         O  0.25585722  0.22672980  0.08519136    -0.81500
O56         O  0.30211189  0.31002207  0.01025201    -0.81600
O57         O  0.26361275  0.14713963  0.46490003    -0.81500
O58         O  0.25884458  0.30456370  0.06614652    -0.81600
O59         O  0.30147212  0.20232503  0.45143645    -0.81500
O60         O  0.28527676  0.19240948  0.03381835    -0.81500
O61         O  0.27596269  0.34344552  0.45297931    -0.81600
C62         C  0.30110394  0.32508176  0.42585492     1.08200
C63         C  0.28462276  0.20423690  0.07038453     1.08100
C64         C  0.29348475  0.31722111  0.04811178     1.08200
C65         C  0.29728418  0.16321766  0.45019606     1.08100
O66         O  0.21631487  0.18613881  0.42460205    -0.81500
O67         O  0.17495695  0.29333447  0.03826708    -0.81600
O68         O  0.19764735  0.30749488  0.45182363    -0.81500
O69         O  0.21043621  0.14837741  0.03743545    -0.81500
O70         O  0.17477950  0.20425517  0.06017725    -0.81600
O71         O  0.21694633  0.26222215  0.40433308    -0.81500
O72         O  0.18084290  0.17733416  0.48326792    -0.81500
O73         O  0.21062346  0.33435152  0.52250255    -0.81600
Co74       Co  0.25623916  0.23476695  0.43419927     1.51500
Co75       Co  0.21761287  0.25703147  0.05564712     1.51700
Co76       Co  0.24635510  0.29870939  0.48247367     1.51600
Co77       Co  0.23335068  0.19380217  0.00719452     1.51500
O78         O  0.22653848  0.24304862  0.49680238    -1.43500
C79         C  0.18359294  0.17322563  0.44536993     1.08100
C80         C  0.18442651  0.33138358  0.03326422     1.08200
C81         C  0.19394949  0.29109572  0.41713276     1.08100
C82         C  0.18103480  0.16432005  0.06118198     1.08100
O83         O  0.04098534  0.29059994  0.30442296    -0.81500
O84         O  0.47989593  0.28305772  0.15804679    -0.81500
O85         O  0.05908905  0.29007336  0.22035548    -0.81600
O86         O  0.39883624  0.29712377  0.27221245    -0.81500
O87         O  0.06118007  0.26507401  0.15774016    -0.81600
O88         O  0.44774596  0.30467001  0.31434750    -0.81500
O89         O  0.46749352  0.31480609  0.21883020    -0.81500
O90         O  0.09268845  0.25096412  0.27615586    -0.81600
C91         C  0.07948801  0.28000007  0.30174617     1.08200
C92         C  0.47005309  0.31499427  0.18051724     1.08100
C93         C  0.07265799  0.29238288  0.18395054     1.08200
C94         C  0.41083981  0.31372099  0.30573001     1.08100
O95         O  0.45136094  0.21865631  0.31588899    -0.81500
O96         O  0.03611634  0.17858204  0.15870540    -0.81600
O97         O  0.03798441  0.18388248  0.27040206    -0.81500
O98         O  0.41207090  0.24771826  0.19445454    -0.81500
O99         O  0.45301972  0.19954905  0.16270799    -0.81600
O100        O  0.51441555  0.22249524  0.32232198    -0.81500
O101        O  0.41683780  0.21252714  0.26289598    -0.81500
O102        O  0.08381007  0.20094328  0.19929592    -0.81600
Co103      Co  0.48982951  0.25945211  0.28737690     1.51500
Co104      Co  0.00620995  0.23216589  0.16321497     1.51700
Co105      Co  0.04777203  0.23622574  0.24386802     1.51600
Co106      Co  0.44383731  0.26363188  0.24262350     1.51500
O107        O  0.49471113  0.23296582  0.22594083    -1.43500
C108        C  0.42411487  0.19969078  0.29627712     1.08100
C109        C  0.07230691  0.17561989  0.17006775     1.08200
C110        C  0.02737801  0.18816797  0.30802288     1.08100
C111        C  0.41821703  0.21676823  0.16873142     1.08100
O112        O  0.29216669  0.46710714  0.33206614    -0.81500
O113        O  0.29244565  0.02449625  0.18546696    -0.81500
O114        O  0.28750666  0.44006600  0.19519848    -0.81600
O115        O  0.27414017  0.09124318  0.27813450    -0.81500
O116        O  0.26434785  0.47047634  0.14287241    -0.81600
O117        O  0.30821473  0.03399693  0.27841114    -0.81500
O118        O  0.26664508  0.08597462  0.19452402    -0.81500
O119        O  0.29662796  0.42045567  0.27953188    -0.81600
C120        C  0.30593707  0.43155698  0.31620684     1.08200
C121        C  0.29415346  0.06208489  0.17750199     1.08100
C122        C  0.28742722  0.44460530  0.15627530     1.08200
C123        C  0.30676983  0.07291042  0.28414130     1.08100
O124        O  0.23236723  0.04984950  0.33384536    -0.81500
O125        O  0.19199002  0.45950414  0.18743737    -0.81600
O126        O  0.21303133  0.42064908  0.27358545    -0.81500
O127        O  0.17773887  0.07069018  0.21115331    -0.81500
O128        O  0.20771652  0.03505534  0.15863033    -0.81600
O129        O  0.20945462  0.46902587  0.32059455    -0.81500
O130        O  0.18790886  0.07135227  0.29289681    -0.81500
O131        O  0.21637032  0.41889731  0.23081495    -0.81600
Co132      Co  0.25746964  0.00270651  0.29805630     1.51500
Co133      Co  0.24084041  0.49692951  0.19042750     1.51700
Co134      Co  0.26111503  0.46019845  0.25336886     1.51600
Co135      Co  0.22694381  0.07579096  0.24463630     1.51500
O136        O  0.22663163  0.51088947  0.24612766    -1.43500
C137        C  0.19834982  0.06690674  0.32814887     1.08100
C138        C  0.19118128  0.42509207  0.20353437     1.08200
C139        C  0.19646194  0.43443190  0.30803051     1.08100
C140        C  0.18057823  0.06180227  0.17300856     1.08100
C141        C  0.34107420  0.09856778  0.30079260    -0.07500
C142        C  0.33014061  0.13602015  0.32262840    -0.18600
C143        C  0.35962058  0.16821474  0.32815190     0.09700
C144        C  0.40040630  0.16327006  0.31065645    -0.07400
C145        C  0.41290687  0.12397801  0.29454468    -0.18700
C146        C  0.38368989  0.09084258  0.29089452     0.09700
S147        S  0.34409190  0.21749316  0.35258229    -0.33600
S148        S  0.40188402  0.04184344  0.26840236    -0.33600
H149        H  0.37859802  0.01853393  0.29757546     0.27700
H150        H  0.30283187  0.20494581  0.36493008     0.27700
H151        H  0.29779500  0.14146769  0.33234904     0.18300
H152        H  0.44470150  0.12008339  0.28155996     0.18300
C153        C  0.10297668  0.32657698  0.17436366    -0.07500
C154        C  0.08954162  0.36705569  0.18353056    -0.18600
C155        C  0.11758360  0.39998310  0.19216810     0.09700
C156        C  0.16039541  0.39234387  0.19167971    -0.07400
C157        C  0.17437838  0.35272936  0.17817451    -0.18700
C158        C  0.14602049  0.31975587  0.16924338     0.09700
S159        S  0.09614691  0.45012573  0.20633952    -0.33600
S160        S  0.16452356  0.26834040  0.15534298    -0.33600
H161        H  0.20727286  0.27920951  0.15417996     0.27700
H162        H  0.12380869  0.46246439  0.23558324     0.27700
H163        H  0.05653659  0.37234826  0.18717792     0.18300
H164        H  0.20740120  0.34734182  0.17607872     0.18300
C165        C  0.31170873  0.41685732  0.12665750    -0.07500
C166        C  0.32150715  0.37818303  0.13905555    -0.18600
C167        C  0.32463652  0.34411926  0.11084038     0.09700
C168        C  0.31765000  0.34907258  0.07027797    -0.07400
C169        C  0.31836578  0.38914772  0.05662513    -0.18700
C170        C  0.31587781  0.42344172  0.08459865     0.09700
S171        S  0.33265749  0.29374024  0.12739301    -0.33600
S172        S  0.31332512  0.47380452  0.06496875    -0.33600
H173        H  0.32930888  0.49546047  0.09879854     0.27700
H174        H  0.34480166  0.30728534  0.16594491     0.27700
H175        H  0.32130944  0.37328463  0.17107859     0.18300
H176        H  0.31514585  0.39347304  0.02492190     0.18300
C177        C  0.15472497  0.14454572  0.42563968    -0.07500
C178        C  0.15906783  0.10326220  0.43402472    -0.18600
C179        C  0.16968456  0.07430006  0.40191379     0.09700
C180        C  0.17235082  0.08708058  0.36196118    -0.07400
C181        C  0.15422850  0.12431911  0.35478258    -0.18700
C182        C  0.14477372  0.15322601  0.38701257     0.09700
S183        S  0.18240594  0.02293675  0.41233858    -0.33600
S184        S  0.12850746  0.20386966  0.37796328    -0.33600
H185        H  0.12078426  0.19482687  0.33714918     0.27700
H186        H  0.17751022  0.02856868  0.45491717     0.27700
H187        H  0.16295503  0.09593072  0.46483464     0.18300
H188        H  0.15253249  0.13314239  0.32405625     0.18300
C189        C  0.16401923  0.30454622  0.39030904    -0.07500
C190        C  0.17832243  0.30710615  0.34924207    -0.18600
C191        C  0.15058981  0.30500700  0.31942925     0.09700
C192        C  0.10769191  0.29947312  0.33062446    -0.07400
C193        C  0.09303594  0.30372589  0.37197270    -0.18700
C194        C  0.12099691  0.30618858  0.40215849     0.09700
S195        S  0.17168441  0.30749334  0.26751363    -0.33600
S196        S  0.10131527  0.30424098  0.45473460    -0.33600
H197        H  0.05949626  0.31082029  0.44925328     0.27700
H198        H  0.13601726  0.32499116  0.25558123     0.27700
H199        H  0.21147484  0.30781704  0.34009350     0.18300
H200        H  0.05995935  0.30018777  0.38065099     0.18300
C201        C  0.31780448  0.19454714  0.09535833    -0.07500
C202        C  0.35868791  0.19369564  0.07702144    -0.18600
C203        C  0.39246713  0.19809012  0.10058895     0.09700
C204        C  0.38496998  0.20251194  0.14331902    -0.07400
C205        C  0.34427640  0.19836211  0.16166199    -0.18700
C206        C  0.31048059  0.19371962  0.13807331     0.09700
S207        S  0.44436943  0.20321913  0.07541597    -0.33600
S208        S  0.25828681  0.18913888  0.16289276    -0.33600
H209        H  0.26946738  0.18976851  0.20295345     0.27700
H210        H  0.43209849  0.21907273  0.04006743     0.27700
H211        H  0.36424606  0.19343136  0.04430110     0.18300
H212        H  0.33900594  0.20072502  0.19449912     0.18300
C213        C  0.39196612  0.07870129  0.44374196    -0.07700
C214        C  0.35573937  0.06709057  0.42520367    -0.18600
C215        C  0.32553621  0.09560023  0.42276255     0.09700
C216        C  0.33224461  0.13686545  0.43788281    -0.07400
C217        C  0.37022750  0.14446248  0.95791866    -0.18700
C218        C  0.39612543  0.11140066  0.95902864     0.09700
S219        S  0.27731653  0.07590102  0.40501591    -0.33600
S220        S  0.44032723  0.11936942  0.98776646    -0.33600
H221        H  0.44110942  0.16287806  0.98994491     0.27700
H222        H  0.26479308  0.11373051  0.39253271     0.27700
H223        H  0.34917041  0.03482109  0.41599628     0.18300
H224        H  0.37740679  0.17405461  0.97353468     0.18300
C225        C  0.09884596  0.42952588  0.03692005    -0.07500
C226        C  0.07094794  0.37924523  0.55275890    -0.18600
C227        C  0.09885551  0.34738911  0.55420949     0.09700
C228        C  0.15349163  0.36437606  0.03907822    -0.07400
C229        C  0.16869671  0.40513699  0.03262899    -0.18700
C230        C  0.14212486  0.43766063  0.03170654     0.09700
S231        S  0.07775383  0.29622298  0.56533176    -0.33600
S232        S  0.16423867  0.48947329  0.02458685    -0.33600
H233        H  0.20630417  0.48027325  0.02539742     0.27700
H234        H  0.03661615  0.30767324  0.57723075     0.27700
H235        H  0.03766718  0.37268632  0.55637215     0.18300
H236        H  0.20182901  0.41170814  0.02736169     0.18300
C237        C  0.09248816  0.43632625  0.38840207    -0.07500
C238        C  0.13020513  0.42932809  0.40315885    -0.18600
C239        C  0.16488444  0.41934043  0.37660541     0.09700
C240        C  0.16195257  0.41568475  0.33393708    -0.07400
C241        C  0.11880883  0.92287341  0.32919135    -0.18700
C242        C  0.08262524  0.92608180  0.35628462     0.09700
S243        S  0.21415281  0.42188717  0.39780422    -0.33600
S244        S  0.03244072  0.92635573  0.33651691    -0.33600
H245        H  0.04605011  0.91246382  0.29645513     0.27700
H246        H  0.19852965  0.41249612  0.43740722     0.27700
H247        H  0.13363555  0.43594569  0.43521664     0.18300
H248        H  0.11654005  0.92331003  0.29680893     0.18300
C249        C  0.38476692  0.06540741  0.07540251    -0.07500
C250        C  0.39581722  0.08278013  0.11317443    -0.18600
C251        C  0.36553095  0.08763330  0.14682252     0.09700
C252        C  0.32374693  0.07465769  0.14279023    -0.07400
C253        C  0.32143293  0.59211192  0.11942078    -0.18700
C254        C  0.35213997  0.58673756  0.08651519     0.09700
S255        S  0.38041803  0.10865636  0.19509301    -0.33600
S256        S  0.33700778  0.58839680  0.03596311    -0.33600
H257        H  0.29920657  0.60818998  0.04665315     0.27700
H258        H  0.42259613  0.11691823  0.18242682     0.27700
H259        H  0.42842860  0.08862745  0.11742254     0.18300
H260        H  0.28955035  0.59654750  0.11356308     0.18300
C261        C  0.44257471  0.41081973  0.10634281    -0.07500
C262        C  0.45440029  0.42199848  0.14576915    -0.18600
C263        C  0.46167331  0.39180583  0.17246395     0.09700
C264        C  0.45675429  0.34980767  0.15929224    -0.07400
C265        C  0.44083447  0.33904235  0.12183096    -0.18700
C266        C  0.43464387  0.36844353  0.09479116     0.09700
S267        S  0.47882372  0.40715738  0.22183776    -0.33600
S268        S  0.42065558  0.34950897  0.04480711    -0.33600
H269        H  0.41039139  0.30805281  0.05329237     0.27700
H270        H  0.47685108  0.45024185  0.21907189     0.27700
H271        H  0.45965163  0.45439614  0.15511589     0.18300
H272        H  0.43516623  0.30667276  0.11256549     0.18300
C273        C  0.03561619  0.08832339  0.38325387    -0.07500
C274        C  0.02776743  0.12784386  0.40128780    -0.18600
C275        C  0.02569456  0.16147533  0.37784840     0.09700
C276        C  0.03266942  0.15520210  0.33497177    -0.07400
C277        C  0.04434598  0.11618984  0.31731466    -0.18700
C278        C  0.04602223  0.08257418  0.34118523     0.09700
S279        S  0.01290302  0.21107979  0.40406814    -0.33600
S280        S  0.56960708  0.03514095  0.32094345    -0.33600
H281        H  0.57858938  0.04725426  0.28098044     0.27700
H282        H  0.01873906  0.20064419  0.44360652     0.27700
H283        H  0.02069378  0.13190316  0.43384094     0.18300
H284        H  0.55683958  0.11301576  0.28622755     0.18300
C285        C  0.33484548  0.41426423  0.84080708     0.85100
C286        C  0.30913174  0.38657510  0.87068654    -0.55100
C287        C  0.33077355  0.36228872  0.89316495     0.08000
C288        C  0.37920040  0.36769301  0.88240971     0.19000
C289        C  0.36598745  0.43902102  0.86722666    -0.55900
C290        C  0.38930875  0.41600304  0.88990356     0.08100
C291        C  0.36229068  0.38279133  0.81424187    -0.55400
C292        C  0.38578159  0.35778751  0.83461545     0.08700
H293        H  0.27567566  0.38408070  0.87206601     0.13200
H294        H  0.39743218  0.34810589  0.89991090    -0.01000
H295        H  0.36816398  0.47270656  0.86897397     0.13500
H296        H  0.36272053  0.38027607  0.78135022     0.13300
C297        C  0.14539970  0.08275637  0.64933231     0.85100
C298        C  0.11904767  0.11556081  0.67637651    -0.55100
C299        C  0.09469163  0.13994973  0.65637672     0.08000
C300        C  0.09917696  0.12871154  0.60898463     0.19000
C301        C  0.11254372  0.05757485  0.62472023    -0.55900
C302        C  0.08773908  0.08038552  0.60294188     0.08100
C303        C  0.17001114  0.10901238  0.61770130    -0.55400
C304        C  0.14742626  0.13391776  0.59666251     0.08700
H305        H  0.11998573  0.11948528  0.70908504     0.13200
H306        H  0.08034777  0.14821707  0.59198399    -0.01000
H307        H  0.10954387  0.02396967  0.62432209     0.13500
H308        H  0.20379750  0.10914045  0.61358493     0.13300
O309        O  0.02131206  0.45358419  0.92442053    -0.81500
O310        O  0.46105503  0.48326109  0.58016809    -0.81500
O311        O  0.07935927  0.48738647  0.00451721    -0.81600
O312        O  0.41698781  0.42838919  0.95730894    -0.81500
O313        O  0.02852639  0.46381432  0.55440351    -0.81600
O314        O  0.44020035  0.47060948  0.91040902    -0.81500
O315        O  0.44145759  0.43269433  0.53660925    -0.81500
O316        O  0.07229981  0.49381659  0.94390838    -0.81600
C317        C  0.05974244  0.46252222  0.92223046     1.08200
C318        C  0.44855703  0.44552938  0.57260004     1.08100
C319        C  0.05744275  0.44900169  0.53168476     1.08200
C320        C  0.41801853  0.43827984  0.92041115     1.08100
O321        O  0.44851156  0.04085750  0.92902664    -0.81500
O322        O  0.02394932  0.03637601  0.59312263    -0.81600
O323        O  0.02740445  0.07149500  0.97376720    -0.81500
O324        O  0.40634099  0.51190887  0.53974173    -0.81500
O325        O  0.45752621  0.55923576  0.54021398    -0.81600
O326        O  0.53214736  0.03673780  0.91426539    -0.81500
O327        O  0.39588664  0.00237471  0.95573022    -0.81500
O328        O  0.05720999  0.05851270  0.53684606    -0.81600
Co329      Co  0.48622090  0.99571231  0.91797819     1.51500
Co330      Co  0.99763762  0.51239831  0.53884510     1.51700
Co331      Co  0.03893917  0.01455052  0.99254713     1.51600
Co332      Co  0.42119272  0.46764497  0.49655427     1.51500
O333        O  0.47780245  0.48794254  0.99680374    -1.43500
C334        C  0.41104808  0.03649411  0.94244247     1.08100
C335        C  0.05414209  0.05836911  0.57654506     1.08200
C336        C  0.03349176  0.07200598  0.93537386     1.08100
C337        C  0.41576112  0.05060991  0.56046604     1.08100
O338        O  0.31224699  0.29515076  0.92530488    -0.81500
O339        O  0.24551043  0.21605815  0.58615371    -0.81500
O340        O  0.29150537  0.29750588  0.51837973    -0.81600
O341        O  0.26588173  0.15810917  0.96551611    -0.81500
O342        O  0.24477926  0.29618489  0.57153148    -0.81600
O343        O  0.31114822  0.20796196  0.94751477    -0.81500
O344        O  0.28513355  0.19427717  0.53342313    -0.81500
O345        O  0.27638252  0.35088861  0.94707649    -0.81600
C346        C  0.30611933  0.33484307  0.92372092     1.08200
C347        C  0.28008296  0.20226327  0.57106736     1.08100
C348        C  0.28051034  0.30698750  0.55548691     1.08200
C349        C  0.30175572  0.16975848  0.95063617     1.08100
O350        O  0.22759993  0.19594234  0.92000491    -0.81500
O351        O  0.16384293  0.28622860  0.54302704    -0.81600
O352        O  0.20078814  0.30609679  0.95303806    -0.81500
O353        O  0.20606098  0.15214111  0.55030695    -0.81500
O354        O  0.16076042  0.20053071  0.56261367    -0.81600
O355        O  0.23039036  0.27377744  0.90071249    -0.81500
O356        O  0.18473645  0.19088073  0.97597431    -0.81500
O357        O  0.22128382  0.34171620  0.01998281    -0.81600
Co358      Co  0.26876804  0.24345768  0.93013343     1.51500
Co359      Co  0.20493090  0.24931361  0.55975475     1.51700
Co360      Co  0.25355059  0.30591597  0.97869560     1.51600
Co361      Co  0.23427137  0.18416226  0.50558929     1.51500
O362        O  0.24379997  0.24998705  0.99316745    -1.43500
C363        C  0.19340045  0.18281222  0.93839278     1.08100
C364        C  0.17369051  0.32381848  0.53689651     1.08200
C365        C  0.20064204  0.29431050  0.91664924     1.08100
C366        C  0.17142389  0.16352345  0.56789559     1.08100
O367        O  0.04147742  0.29374859  0.80838814    -0.81500
O368        O  0.47976829  0.28678588  0.66008886    -0.81500
O369        O  0.06167843  0.28963633  0.72508817    -0.81600
O370        O  0.40290871  0.30917077  0.77516225    -0.81500
O371        O  0.06065251  0.26538768  0.66239397    -0.81600
O372        O  0.44634880  0.31121912  0.82325494    -0.81500
O373        O  0.47196423  0.31947276  0.72021673    -0.81500
O374        O  0.09140106  0.25058166  0.78268527    -0.81600
C375        C  0.07917514  0.28098332  0.80693219     1.08200
C376        C  0.47228419  0.31961349  0.68202555     1.08100
C377        C  0.07406041  0.29191911  0.68832675     1.08200
C378        C  0.41270168  0.32429759  0.81054420     1.08100
O379        O  0.44734307  0.22609593  0.81535078    -0.81500
O380        O  0.03219733  0.17984295  0.66596660    -0.81600
O381        O  0.03242734  0.18764079  0.78355494    -0.81500
O382        O  0.41149682  0.25433516  0.69602404    -0.81500
O383        O  0.45090431  0.20421819  0.66491398    -0.81600
O384        O  0.48930530  0.22521957  0.82239626    -0.81500
O385        O  0.41018345  0.22220059  0.76502427    -0.81500
O386        O  0.07960859  0.19844176  0.70826496    -0.81600
Co387      Co  0.47888721  0.27077492  0.78286057     1.51500
Co388      Co  0.00464980  0.23450872  0.66858892     1.51700
Co389      Co  0.04583111  0.23751175  0.75133781     1.51600
Co390      Co  0.44396515  0.26973987  0.74469055     1.51500
O391        O  0.49371675  0.23322151  0.72978295    -1.43500
C392        C  0.41681706  0.20907382  0.79823536     1.08100
C393        C  0.06750660  0.17449493  0.67831883     1.08200
C394        C  0.02311528  0.19599002  0.82141950     1.08100
C395        C  0.41648243  0.22259787  0.67068111     1.08100
O396        O  0.29196118  0.47670266  0.83125341    -0.81500
O397        O  0.29364425  0.03403623  0.68644072    -0.81500
O398        O  0.28532644  0.44195383  0.69610183    -0.81600
O399        O  0.26791468  0.08837108  0.77799981    -0.81500
O400        O  0.26508965  0.47051266  0.64150037    -0.81600
O401        O  0.31216691  0.03850912  0.77056476    -0.81500
O402        O  0.25857845  0.08963451  0.69568939    -0.81500
O403        O  0.29650499  0.42805970  0.78059659    -0.81600
C404        C  0.30671197  0.44122080  0.81640982     1.08200
C405        C  0.29124374  0.07156839  0.68082099     1.08100
C406        C  0.28581648  0.44400301  0.65679001     1.08200
C407        C  0.30397231  0.07591269  0.78146331     1.08100
O408        O  0.23799982  0.03899667  0.83023943    -0.81500
O409        O  0.19286214  0.46136977  0.68692357    -0.81600
O410        O  0.21154348  0.42882815  0.77588095    -0.81500
O411        O  0.17164675  0.06158669  0.71251012    -0.81500
O412        O  0.20683475  0.03700454  0.65702618    -0.81600
O413        O  0.20744550  0.47973241  0.82028922    -0.81500
O414        O  0.18667405  0.05427499  0.79369330    -0.81500
O415        O  0.21565720  0.42350164  0.73315318    -0.81600
Co416      Co  0.26698042  0.99805521  0.78828351     1.51500
Co417      Co  0.24250300  0.49876465  0.68839530     1.51700
Co418      Co  0.26065057  0.46628647  0.75332537     1.51600
Co419      Co  0.22153226  0.06932112  0.74482798     1.51500
O420        O  0.22705819  0.51674233  0.74330652    -1.43500
C421        C  0.20242618  0.05492786  0.82740536     1.08100
C422        C  0.19126424  0.42785892  0.70471543     1.08200
C423        C  0.19407644  0.44468113  0.80916965     1.08100
C424        C  0.17559109  0.05781042  0.67390212     1.08100
C425        C  0.33401313  0.10707981  0.79966933    -0.07500
C426        C  0.31956960  0.14746903  0.80943867    -0.18600
C427        C  0.34657114  0.18095115  0.81783867     0.09700
C428        C  0.38959822  0.17519886  0.81421745    -0.07400
C429        C  0.40393467  0.13455290  0.81086872    -0.18700
C430        C  0.37610540  0.10014321  0.80549889     0.09700
S431        S  0.32490452  0.23157898  0.82788770    -0.33600
S432        S  0.39683341  0.04917977  0.80271819    -0.33600
H433        H  0.36192164  0.03210663  0.82525152     0.27700
H434        H  0.35904983  0.24971785  0.84691044     0.27700
H435        H  0.28700862  0.15387576  0.80879147     0.18300
H436        H  0.43706690  0.12973279  0.80912245     0.18300
C437        C  0.10424472  0.32636849  0.67761256    -0.07500
C438        C  0.09037732  0.36701624  0.68499958    -0.18600
C439        C  0.11827170  0.40089425  0.69190464     0.09700
C440        C  0.16099696  0.39398086  0.69305830    -0.07400
C441        C  0.17540595  0.35409709  0.68134480    -0.18700
C442        C  0.14758855  0.32047216  0.67298577     0.09700
S443        S  0.09818555  0.45204014  0.70284835    -0.33600
S444        S  0.16886670  0.27008789  0.66062452    -0.33600
H445        H  0.13698770  0.25502445  0.63684016     0.27700
H446        H  0.06287654  0.44413351  0.68130437     0.27700
H447        H  0.05727204  0.37182903  0.68838433     0.18300
H448        H  0.20844546  0.34881392  0.67988290     0.18300
C449        C  0.30636691  0.41177518  0.62943001    -0.07500
C450        C  0.30943390  0.37324049  0.64525579    -0.18600
C451        C  0.30603555  0.33701896  0.62038815     0.09700
C452        C  0.30311681  0.33943131  0.57838236    -0.07400
C453        C  0.30800511  0.37813454  0.56169718    -0.18700
C454        C  0.31053583  0.41440939  0.58682727     0.09700
S455        S  0.29713585  0.28893914  0.64415718    -0.33600
S456        S  0.31590200  0.46292305  0.56302605    -0.33600
H457        H  0.33445631  0.48449492  0.59546004     0.27700
H458        H  0.30629566  0.30316665  0.68351898     0.27700
H459        H  0.30759012  0.37111394  0.67784600     0.18300
H460        H  0.30626532  0.38044960  0.52941056     0.18300
C461        C  0.17063704  0.14913886  0.91744939    -0.07500
C462        C  0.17514619  0.10930795  0.93052744    -0.18600
C463        C  0.18125271  0.07554732  0.90212889     0.09700
C464        C  0.18248201  0.08228483  0.86040383    -0.07400
C465        C  0.16875149  0.12005319  0.84888460    -0.18700
C466        C  0.16234756  0.15338069  0.87725428     0.09700
S467        S  0.19178575  0.02646364  0.92048204    -0.33600
S468        S  0.14985609  0.20275711  0.86078956    -0.33600
H469        H  0.13696394  0.18773506  0.82292264     0.27700
H470        H  0.18027191  0.00416547  0.88536652     0.27700
H471        H  0.18020336  0.10556314  0.96193700     0.18300
H472        H  0.16717037  0.12503076  0.81707830     0.18300
C473        C  0.16697448  0.30356690  0.89231367    -0.07500
C474        C  0.17814166  0.31297381  0.85201262    -0.18600
C475        C  0.14868966  0.31062993  0.82385822     0.09700
C476        C  0.10719841  0.29914225  0.83613202    -0.07400
C477        C  0.09493531  0.29493261  0.87742788    -0.18700
C478        C  0.12463882  0.29630581  0.90575796     0.09700
S479        S  0.16625116  0.31981540  0.77222277    -0.33600
S480        S  0.10913730  0.28105310  0.95651786    -0.33600
H481        H  0.06590603  0.28058309  0.95385350     0.27700
H482        H  0.12795012  0.33436861  0.76329323     0.27700
H483        H  0.21052492  0.31948927  0.84179611     0.18300
H484        H  0.06299946  0.28559390  0.88655482     0.18300
C485        C  0.31468521  0.19715801  0.59689280    -0.07500
C486        C  0.35566992  0.20045717  0.57869294    -0.18600
C487        C  0.38961998  0.20615911  0.60218513     0.09700
C488        C  0.38263963  0.20870722  0.64501261    -0.07400
C489        C  0.34231860  0.20069756  0.66319205    -0.18700
C490        C  0.30832908  0.19381013  0.63952778     0.09700
S491        S  0.44129232  0.21369357  0.57703449    -0.33600
S492        S  0.25698526  0.18355503  0.66443767    -0.33600
H493        H  0.26929880  0.18110114  0.70379152     0.27700
H494        H  0.42902486  0.21877038  0.53814817     0.27700
H495        H  0.36098507  0.20115849  0.54598697     0.18300
H496        H  0.33735767  0.20114905  0.69600500     0.18300
C497        C  0.38487094  0.07198121  0.94123122    -0.07700
C498        C  0.34891680  0.06702886  0.92096373    -0.18600
C499        C  0.32319794  0.10030765  0.92002157     0.09700
C500        C  0.33287659  0.13861053  0.94039810    -0.07400
C501        C  0.37119950  0.14996497  0.45030961    -0.18700
C502        C  0.40106649  0.12094250  0.45433805     0.09700
S503        S  0.27893065  0.09246233  0.89184713    -0.33600
S504        S  0.44625965  0.13746716  0.48008079    -0.33600
H505        H  0.44496353  0.17964674  0.47250366     0.27700
H506        H  0.27449109  0.13424923  0.88462390     0.27700
H507        H  0.34092989  0.03730129  0.90589587     0.18300
H508        H  0.37614300  0.18173339  0.46204000     0.18300
C509        C  0.08571257  0.41898576  0.54333752    -0.07500
C510        C  0.08326598  0.38975860  0.04633147    -0.18600
C511        C  0.11011730  0.35701561  0.04793334     0.09700
C512        C  0.14226062  0.35603828  0.54510132    -0.07400
C513        C  0.15645273  0.39718277  0.54051691    -0.18700
C514        C  0.12878256  0.42862143  0.53958274     0.09700
S515        S  0.08820416  0.30684104  0.06142517    -0.33600
S516        S  0.14915823  0.48071226  0.53158851    -0.33600
H517        H  0.19053825  0.47418292  0.53880245     0.27700
H518        H  0.04602245  0.31645348  0.06257849     0.27700
H519        H  0.04992556  0.38418026  0.05137118     0.18300
H520        H  0.18946190  0.40466022  0.53553504     0.18300
C521        C  0.08992753  0.43972107  0.89328331    -0.07500
C522        C  0.12903300  0.43431862  0.90617125    -0.18600
C523        C  0.16371128  0.42836672  0.87817290     0.09700
C524        C  0.15939818  0.42662480  0.83582910    -0.07400
C525        C  0.12694973  0.92705521  0.81833336    -0.18700
C526        C  0.09198289  0.93726132  0.84477488     0.09700
S527        S  0.21425102  0.43205753  0.89724686    -0.33600
S528        S  0.04469753  0.94909494  0.82329054    -0.33600
H529        H  0.05790018  0.93791928  0.78245616     0.27700
H530        H  0.20095768  0.43165098  0.93891510     0.27700
H531        H  0.13317684  0.43958766  0.93820341     0.18300
H532        H  0.12552152  0.92754911  0.78583136     0.18300
C533        C  0.38801472  0.07880422  0.58720600    -0.07500
C534        C  0.39803810  0.08690730  0.62709771    -0.18600
C535        C  0.36656209  0.09155387  0.65925202     0.09700
C536        C  0.32406063  0.08979100  0.65167955    -0.07400
C537        C  0.31678492  0.57762571  0.60517957    -0.18700
C538        C  0.34709284  0.57308841  0.57195231     0.09700
S539        S  0.38131213  0.09512650  0.70991808    -0.33600
S540        S  0.32966378  0.56164991  0.52236241    -0.33600
H541        H  0.28812982  0.57286369  0.53215218     0.27700
H542        H  0.42422143  0.10286739  0.70039144     0.27700
H543        H  0.42987145  0.08350729  0.63373203     0.18300
H544        H  0.28417416  0.57273750  0.60039609     0.18300
C545        C  0.44598388  0.41513756  0.60492907    -0.07500
C546        C  0.46037317  0.42705272  0.64328366    -0.18600
C547        C  0.46618967  0.39739064  0.67156642     0.09700
C548        C  0.45887565  0.35498673  0.66057670    -0.07400
C549        C  0.44001016  0.34409695  0.62470826    -0.18700
C550        C  0.43333878  0.37292841  0.59714764     0.09700
S551        S  0.48342697  0.41372925  0.72061207    -0.33600
S552        S  0.41129990  0.35141292  0.55178650    -0.33600
H553        H  0.38661764  0.38513636  0.54829848     0.27700
H554        H  0.48408094  0.45665163  0.71575639     0.27700
H555        H  0.46865275  0.45933641  0.65049842     0.18300
H556        H  0.43138879  0.31188902  0.61708122     0.18300
C557        C  0.04183262  0.10836415  0.91008277    -0.07500
C558        C  0.02578418  0.14678534  0.92334958    -0.18600
C559        C  0.01847307  0.17594677  0.89543912     0.09700
C560        C  0.03000423  0.16724793  0.85306946    -0.07400
C561        C  0.05069521  0.13098111  0.84069834    -0.18700
C562        C  0.05722730  0.10179940  0.86831017     0.09700
S563        S  0.99182077  0.22227096  0.91512378    -0.33600
S564        S  0.58011907  0.05682113  0.84484692    -0.33600
H565        H  0.58415093  0.06505346  0.80350057     0.27700
H566        H  0.99695341  0.21871685  0.95640977     0.27700
H567        H  0.01654160  0.15285205  0.95527994     0.18300
H568        H  0.55469897  0.12500703  0.80564683     0.18300
C569        C  0.33567746  0.91616442  0.34387991     0.85100
C570        C  0.30967043  0.88922690  0.37416415    -0.55100
C571        C  0.33076768  0.86402892  0.39614284     0.08000
C572        C  0.37905184  0.86762069  0.38452731     0.19000
C573        C  0.36799434  0.93956321  0.36949855    -0.55900
C574        C  0.39056992  0.91552627  0.39177094     0.08100
C575        C  0.36167057  0.88339480  0.31674198    -0.55400
C576        C  0.38481024  0.85739099  0.33675438     0.08700
H577        H  0.27630836  0.88768832  0.37571768     0.13200
H578        H  0.39685380  0.84748123  0.40188265    -0.01000
H579        H  0.37120516  0.97318842  0.37140119     0.13500
H580        H  0.36149080  0.88091439  0.28391579     0.13300
C581        C  0.15071899  0.58838488  0.14884547     0.85100
C582        C  0.12335665  0.62043112  0.17574618    -0.55100
C583        C  0.09868236  0.64443671  0.15598479     0.08000
C584        C  0.10475865  0.63413230  0.10822504     0.19000
C585        C  0.11867804  0.56304442  0.12344434    -0.55900
C586        C  0.09396635  0.58564126  0.10145253     0.08100
C587        C  0.17599884  0.61532602  0.11764402    -0.55400
C588        C  0.15355631  0.64013152  0.09625153     0.08700
H589        H  0.12302519  0.62350870  0.20860891     0.13200
H590        H  0.08580329  0.65351614  0.09123570    -0.01000
H591        H  0.11586166  0.52942742  0.12302149     0.13500
H592        H  0.20980170  0.61600228  0.11408935     0.13300
O593        O  0.01735309  0.94728278  0.42657328    -0.81500
O594        O  0.45957812  0.97650678  0.07564168    -0.81500
O595        O  0.07449072  0.98303484  0.50751622    -0.81600
O596        O  0.41691081  0.92682229  0.45939692    -0.81500
O597        O  0.03104358  0.96918165  0.05595590    -0.81600
O598        O  0.44129606  0.96900779  0.41298406    -0.81500
O599        O  0.44130278  0.92703837  0.03030788    -0.81500
O600        O  0.06794603  0.98767593  0.44690483    -0.81600
C601        C  0.05578190  0.95596178  0.42570637     1.08200
C602        C  0.44944891  0.93846266  0.06643404     1.08100
C603        C  0.05379813  0.94711352  0.03215025     1.08200
C604        C  0.41892718  0.93680141  0.42254780     1.08100
O605        O  0.45030759  0.54014560  0.42982613    -0.81500
O606        O  0.03064893  0.54063196  0.09209905    -0.81600
O607        O  0.02303737  0.56962457  0.47159905    -0.81500
O608        O  0.40469415  0.00553157  0.03608550    -0.81500
O609        O  0.45396808  0.05446948  0.03978128    -0.81600
O610        O  0.53397756  0.53204198  0.41633748    -0.81500
O611        O  0.39653049  0.50508019  0.45924637    -0.81500
O612        O  0.06283357  0.56332778  0.03555911    -0.81600
Co613      Co  0.48619601  0.49307715  0.42091994     1.51500
Co614      Co  0.99735062  0.01546141  0.03840598     1.51700
Co615      Co  0.03682995  0.51516474  0.49220670     1.51600
Co616      Co  0.42136011  0.96385336  0.99134750     1.51500
O617        O  0.47635093  0.98574636  0.49988212    -1.43500
C618        C  0.41263870  0.53758398  0.44324948     1.08100
C619        C  0.06031179  0.56313742  0.07526337     1.08200
C620        C  0.03144730  0.56867295  0.43351957     1.08100
C621        C  0.41903435  0.55042218  0.06213408     1.08100
O622        O  0.31361064  0.79760281  0.42909561    -0.81500
O623        O  0.25517610  0.73442496  0.07897398    -0.81500
O624        O  0.28815015  0.84570213  0.00553542    -0.81600
O625        O  0.26683069  0.66002731  0.46445956    -0.81500
O626        O  0.25849676  0.78896263  0.02043274    -0.81600
O627        O  0.31284516  0.70921396  0.44640768    -0.81500
O628        O  0.28721588  0.70129854  0.03039338    -0.81500
O629        O  0.27503449  0.85185517  0.44898956    -0.81600
C630        C  0.30600269  0.83666698  0.42655423     1.08200
C631        C  0.28580358  0.71384092  0.06662327     1.08100
C632        C  0.28208520  0.82020227  0.03211020     1.08200
C633        C  0.30287393  0.67104147  0.44944000     1.08100
O634        O  0.22896047  0.69994046  0.42050180    -0.81500
O635        O  0.16415932  0.77992637  0.02439450    -0.81600
O636        O  0.19911828  0.80492948  0.45953024    -0.81500
O637        O  0.20587911  0.66000225  0.04031071    -0.81500
O638        O  0.17101309  0.71096864  0.07313454    -0.81600
O639        O  0.23096859  0.77923838  0.40512184    -0.81500
O640        O  0.18619492  0.69534862  0.47632713    -0.81500
O641        O  0.22136634  0.84373922  0.52488879    -0.81600
Co642      Co  0.27028748  0.74659049  0.43199861     1.51500
Co643      Co  0.21278812  0.75154131  0.04358811     1.51700
Co644      Co  0.25315092  0.80772955  0.48298144     1.51600
Co645      Co  0.23305768  0.70606628  0.00652113     1.51500
O646        O  0.24789374  0.75119240  0.49589022    -1.43500
C647        C  0.19435763  0.68782010  0.43863765     1.08100
C648        C  0.16668125  0.81898726  0.03188252     1.08200
C649        C  0.19925621  0.79567572  0.42269441     1.08100
C650        C  0.17690257  0.67156728  0.06798308     1.08100
O651        O  0.03812019  0.79253223  0.31435221    -0.81500
O652        O  0.47571491  0.77940035  0.16139498    -0.81500
O653        O  0.05672842  0.79007129  0.22745653    -0.81600
O654        O  0.40168637  0.80795498  0.27725118    -0.81500
O655        O  0.05625422  0.76311878  0.16526891    -0.81600
O656        O  0.44406692  0.80851233  0.32617541    -0.81500
O657        O  0.46952005  0.81581308  0.21942406    -0.81500
O658        O  0.08977977  0.75284317  0.28600367    -0.81600
C659        C  0.07621680  0.78085270  0.31256567     1.08200
C660        C  0.46949586  0.81364028  0.18103377     1.08100
C661        C  0.06797256  0.79124323  0.19028780     1.08200
C662        C  0.41117726  0.82284918  0.31284424     1.08100
O663        O  0.44729723  0.72272621  0.31951908    -0.81500
O664        O  0.03175970  0.67798754  0.16927971    -0.81600
O665        O  0.03375222  0.68715998  0.28483534    -0.81500
O666        O  0.40934437  0.74962314  0.19977393    -0.81500
O667        O  0.44777148  0.69788084  0.17021785    -0.81600
O668        O  0.48917861  0.72171190  0.32561221    -0.81500
O669        O  0.40836221  0.72054676  0.27053085    -0.81500
O670        O  0.07979510  0.70076948  0.20950650    -0.81600
Co671      Co  0.47724374  0.76742248  0.28636043     1.51500
Co672      Co  0.00194356  0.73159716  0.17183964     1.51700
Co673      Co  0.04455975  0.73781917  0.25378119     1.51600
Co674      Co  0.44221799  0.76717562  0.24747317     1.51500
O675        O  0.49147248  0.72952974  0.23336291    -1.43500
C676        C  0.41602618  0.70649271  0.30312076     1.08100
C677        C  0.06863375  0.67608755  0.17953529     1.08200
C678        C  0.02336675  0.69416719  0.32262137     1.08100
C679        C  0.41424679  0.71784587  0.17442228     1.08100
O680        O  0.29018394  0.97770326  0.33858744    -0.81500
O681        O  0.29320688  0.53034373  0.19172877    -0.81500
O682        O  0.28823554  0.93502379  0.19844084    -0.81600
O683        O  0.26669637  0.58882009  0.28441930    -0.81500
O684        O  0.25760184  0.95835014  0.14658958    -0.81600
O685        O  0.30707374  0.53596038  0.28147828    -0.81500
O686        O  0.26337225  0.58963189  0.20079094    -0.81500
O687        O  0.29825723  0.93409434  0.28463860    -0.81600
C688        C  0.30713625  0.94474482  0.32133197     1.08200
C689        C  0.29426533  0.56834217  0.18644132     1.08100
C690        C  0.28142323  0.93329955  0.16068577     1.08200
C691        C  0.30121744  0.57427235  0.29013674     1.08100
O692        O  0.22951931  0.54093720  0.33569799    -0.81500
O693        O  0.18409030  0.96098189  0.19487322    -0.81600
O694        O  0.21143593  0.92051184  0.28679308    -0.81500
O695        O  0.17441083  0.56891141  0.21348566    -0.81500
O696        O  0.20854776  0.53911939  0.15983370    -0.81600
O697        O  0.20661646  0.97692197  0.32447838    -0.81500
O698        O  0.18317808  0.56005493  0.29532550    -0.81500
O699        O  0.21503578  0.91300584  0.22220698    -0.81600
Co700      Co  0.25763347  0.49845182  0.29555321     1.51500
Co701      Co  0.23786514  0.99397572  0.19187537     1.51700
Co702      Co  0.25209077  0.95251437  0.24966769     1.51600
Co703      Co  0.22210186  0.57324454  0.24847587     1.51500
O704        O  0.22954734  0.01301898  0.24876086    -1.43500
C705        C  0.19584998  0.55901482  0.33032427     1.08100
C706        C  0.18534929  0.92351301  0.20341653     1.08200
C707        C  0.19402787  0.94042358  0.31722240     1.08100
C708        C  0.17910381  0.56312591  0.17503269     1.08100
C709        C  0.33218317  0.60476634  0.30785441    -0.07500
C710        C  0.31837705  0.64538895  0.31789371    -0.18600
C711        C  0.34596552  0.67878123  0.32451248     0.09700
C712        C  0.38888802  0.67260213  0.31938886    -0.07400
C713        C  0.40282180  0.63172376  0.31630105    -0.18700
C714        C  0.37439466  0.59745958  0.31258809     0.09700
S715        S  0.32487366  0.72970321  0.33426691    -0.33600
S716        S  0.39388882  0.54618652  0.31325005    -0.33600
H717        H  0.35738975  0.52976272  0.33373705     0.27700
H718        H  0.35962688  0.74787496  0.35225786     0.27700
H719        H  0.28573949  0.65210685  0.31859164     0.18300
H720        H  0.43590021  0.62653666  0.31409351     0.18300
C721        C  0.09942221  0.82263300  0.17841929    -0.07500
C722        C  0.08746383  0.86302234  0.17307807    -0.18600
C723        C  0.11522740  0.89734147  0.17870646     0.09700
C724        C  0.15496590  0.89053256  0.19103196    -0.07400
C725        C  0.16674731  0.84950541  0.19346987    -0.18700
C726        C  0.14014872  0.81582564  0.18629389     0.09700
S727        S  0.09770747  0.94895288  0.17439771    -0.33600
S728        S  0.15801893  0.76497454  0.19383304    -0.33600
H729        H  0.13692890  0.74510644  0.16222101     0.27700
H730        H  0.06297126  0.93661659  0.15323150     0.27700
H731        H  0.05558030  0.86786169  0.16767464     0.18300
H732        H  0.19609715  0.84283689  0.20409525     0.18300
C733        C  0.29558302  0.89714888  0.13565692    -0.07500
C734        C  0.27137927  0.86100714  0.14104564    -0.18600
C735        C  0.26618116  0.83254154  0.10841380     0.09700
C736        C  0.29369044  0.83490808  0.07288188    -0.07400
C737        C  0.32585505  0.86638176  0.07250966    -0.18700
C738        C  0.32416840  0.89964351  0.10178360     0.09700
S739        S  0.21674359  0.80533983  0.11003788    -0.33600
S740        S  0.35313997  0.94704629  0.09183464    -0.33600
H741        H  0.35607298  0.96048575  0.13281582     0.27700
H742        H  0.19482543  0.84226713  0.11392047     0.27700
H743        H  0.25036180  0.85943347  0.16790398     0.18300
H744        H  0.34711557  0.86960107  0.04547483     0.18300
C745        C  0.16986119  0.65602815  0.41699647    -0.07500
C746        C  0.16868942  0.61596561  0.43134263    -0.18600
C747        C  0.17247672  0.58117016  0.40364307     0.09700
C748        C  0.17582199  0.58744186  0.36190380    -0.07400
C749        C  0.16616731  0.62596760  0.34904262    -0.18700
C750        C  0.16416405  0.66052894  0.37606998     0.09700
S751        S  0.17680273  0.53016883  0.42124366    -0.33600
S752        S  0.16370670  0.71053514  0.35581606    -0.33600
H753        H  0.14649532  0.69692086  0.31951939     0.27700
H754        H  0.16683098  0.54149714  0.46266198     0.27700
H755        H  0.17175297  0.61239992  0.46317963     0.18300
H756        H  0.16647728  0.63055944  0.31693120     0.18300
C757        C  0.16369809  0.80326847  0.39998232    -0.07500
C758        C  0.17242005  0.81854249  0.36155992    -0.18600
C759        C  0.14262889  0.81556828  0.33367933     0.09700
C760        C  0.10318696  0.79727274  0.34394655    -0.07400
C761        C  0.09273278  0.78638479  0.38404737    -0.18700
C762        C  0.12283091  0.78870699  0.41223484     0.09700
S763        S  0.15766178  0.83332305  0.28461753    -0.33600
S764        S  0.11095572  0.76597731  0.46043773    -0.33600
H765        H  0.06821796  0.75820068  0.45712036     0.27700
H766        H  0.11723415  0.84223118  0.27612568     0.27700
H767        H  0.20352201  0.83049986  0.35229616     0.18300
H768        H  0.06246318  0.77202194  0.39188484     0.18300
C769        C  0.31790784  0.70606190  0.09399234    -0.07500
C770        C  0.35944089  0.70227082  0.07802433    -0.18600
C771        C  0.39159884  0.70267884  0.10381019     0.09700
C772        C  0.38185797  0.70710749  0.14644365    -0.07400
C773        C  0.34014379  0.70705274  0.16224027    -0.18700
C774        C  0.30803099  0.70555523  0.13655138     0.09700
S775        S  0.44492055  0.70116002  0.08173645    -0.33600
S776        S  0.25469024  0.70254952  0.15873317    -0.33600
H777        H  0.26348440  0.69478992  0.19825188     0.27700
H778        H  0.43691311  0.71003455  0.04234382     0.27700
H779        H  0.36685374  0.70111595  0.04541303     0.18300
H780        H  0.33282700  0.70939308  0.19488920     0.18300
C781        C  0.38717268  0.57324332  0.43931466    -0.07700
C782        C  0.34943483  0.56680683  0.42217207    -0.18600
C783        C  0.32249061  0.59929739  0.42204246     0.09700
C784        C  0.33359544  0.63912603  0.43883812    -0.07400
C785        C  0.36954306  0.65299286  0.95456585    -0.18700
C786        C  0.39900083  0.62303302  0.95670906     0.09700
S787        S  0.27373542  0.58732802  0.40173210    -0.33600
S788        S  0.44701618  0.63859430  0.97805018    -0.33600
H789        H  0.44623327  0.68069997  0.96994996     0.27700
H790        H  0.26757814  0.62740756  0.39011021     0.27700
H791        H  0.34023137  0.53602254  0.41031598     0.18300
H792        H  0.37647328  0.68478797  0.96509480     0.18300
C793        C  0.07726006  0.91287152  0.04427207    -0.07500
C794        C  0.08072213  0.88593366  0.54967024    -0.18600
C795        C  0.10903829  0.85439679  0.55159730     0.09700
C796        C  0.13176795  0.84724970  0.04474262    -0.07400
C797        C  0.14411470  0.88852511  0.05598189    -0.18700
C798        C  0.11836234  0.92121907  0.05340003     0.09700
S799        S  0.08882952  0.80275472  0.56160943    -0.33600
S800        S  0.14079424  0.97340035  0.05490196    -0.33600
H801        H  0.17743236  0.96495869  0.07216274     0.27700
H802        H  0.04718834  0.81316369  0.57231576     0.27700
H803        H  0.04757660  0.87856517  0.55257044     0.18300
H804        H  0.17592727  0.89612337  0.06228800     0.18300
C805        C  0.08664706  0.93289655  0.39835415    -0.07500
C806        C  0.12521922  0.92803600  0.41278192    -0.18600
C807        C  0.16101734  0.92373491  0.38599014     0.09700
C808        C  0.15833454  0.92440143  0.34369536    -0.07400
C809        C  0.12238068  0.41465217  0.31997752    -0.18700
C810        C  0.08741733  0.42557952  0.34669041     0.09700
S811        S  0.21027760  0.92375151  0.40701435    -0.33600
S812        S  0.03857029  0.43128688  0.32553669    -0.33600
H813        H  0.04951888  0.41011630  0.28774483     0.27700
H814        H  0.19466954  0.91580322  0.44697001     0.27700
H815        H  0.12796789  0.93225698  0.44516239     0.18300
H816        H  0.11984369  0.41158301  0.28757227     0.18300
C817        C  0.39291498  0.57588161  0.09316805    -0.07500
C818        C  0.40269773  0.57516893  0.13333093    -0.18600
C819        C  0.37136724  0.57764573  0.16586481     0.09700
C820        C  0.32967907  0.58433492  0.15885246    -0.07400
C821        C  0.31198873  0.06349582  0.10390069    -0.18700
C822        C  0.34167665  0.05908103  0.07027152     0.09700
S823        S  0.38404079  0.56664497  0.21545075    -0.33600
S824        S  0.32399113  0.04069997  0.02190618    -0.33600
H825        H  0.28105609  0.04407637  0.03291548     0.27700
H826        H  0.42676564  0.56056378  0.20563069     0.27700
H827        H  0.43362956  0.56654337  0.13873729     0.18300
H828        H  0.27973855  0.05443149  0.10056267     0.18300
C829        C  0.44971719  0.90689029  0.09749019    -0.07500
C830        C  0.45708474  0.91973516  0.13802977    -0.18600
C831        C  0.46124251  0.89089395  0.16740737     0.09700
C832        C  0.45906413  0.84803562  0.15606244    -0.07400
C833        C  0.44845226  0.83572177  0.11655436    -0.18700
C834        C  0.44462522  0.86379382  0.08722975     0.09700
S835        S  0.46962653  0.91054540  0.21820832    -0.33600
S836        S  0.43463242  0.84232689  0.03684483    -0.33600
H837        H  0.44504450  0.80116635  0.04125025     0.27700
H838        H  0.43760980  0.88514950  0.23636453     0.27700
H839        H  0.46007014  0.95252154  0.14694008     0.18300
H840        H  0.44377139  0.80311266  0.10781916     0.18300
C841        C  0.04126227  0.60456971  0.40844740    -0.07500
C842        C  0.02720257  0.64339856  0.42283281    -0.18600
C843        C  0.01950427  0.67297771  0.39578211     0.09700
C844        C  0.03077335  0.66493257  0.35332903    -0.07400
C845        C  0.05091527  0.62853230  0.33994547    -0.18700
C846        C  0.05618745  0.59814870  0.36665761     0.09700
S847        S  0.99172149  0.71829504  0.41665119    -0.33600
S848        S  0.57352972  0.54880588  0.34195748    -0.33600
H849        H  0.56677762  0.55329028  0.30119129     0.27700
H850        H  0.99688231  0.71393628  0.45779883     0.27700
H851        H  0.01874217  0.64909254  0.45498950     0.18300
H852        H  0.54852401  0.61859221  0.30515864     0.18300
C853        C  0.34137486  0.90256856  0.82817603     0.85100
C854        C  0.31419748  0.87418647  0.85582129    -0.55100
C855        C  0.33459394  0.84971931  0.87929184     0.08000
C856        C  0.38311320  0.85519323  0.87164272     0.19000
C857        C  0.37021420  0.92655728  0.85721475    -0.55900
C858        C  0.39215716  0.90301135  0.88060262     0.08100
C859        C  0.37050994  0.87211968  0.80251948    -0.55400
C860        C  0.39260735  0.84677927  0.82411580     0.08700
H861        H  0.28062975  0.87331802  0.85644251     0.13200
H862        H  0.40023592  0.83531170  0.88988693    -0.01000
H863        H  0.37264100  0.96024100  0.85945552     0.13500
H864        H  0.37292204  0.87033881  0.76953039     0.13300
C865        C  0.15446141  0.58535789  0.64191602     0.85100
C866        C  0.12604111  0.61736951  0.66651505    -0.55100
C867        C  0.10293805  0.64012323  0.64443719     0.08000
C868        C  0.11042433  0.62852213  0.59745406     0.19000
C869        C  0.12450225  0.55835208  0.61572786    -0.55900
C870        C  0.10129266  0.57988805  0.59150439     0.08100
C871        C  0.18057445  0.61123325  0.61082881    -0.55400
C872        C  0.15875994  0.63503773  0.58801725     0.08700
H873        H  0.12436789  0.62212318  0.69939083     0.13200
H874        H  0.09218245  0.64701149  0.57889911    -0.01000
H875        H  0.12213571  0.52478967  0.61622612     0.13500
H876        H  0.21432807  0.61125163  0.60774705     0.13300
O877        O  0.02642765  0.95387914  0.91059607    -0.81500
O878        O  0.45431177  0.97859818  0.58920267    -0.81500
O879        O  0.06001275  0.95922837  0.99795461    -0.81600
O880        O  0.42335509  0.91659679  0.94661767    -0.81500
O881        O  0.02867195  0.95869659  0.55235632    -0.81600
O882        O  0.44048718  0.95775984  0.89809275    -0.81500
O883        O  0.42620211  0.93356629  0.54486478    -0.81500
O884        O  0.07516006  0.99206070  0.94197999    -0.81600
C885        C  0.06436940  0.96327931  0.91524930     1.08200
C886        C  0.43999942  0.94225570  0.57928954     1.08100
C887        C  0.06461595  0.95740484  0.53384631     1.08200
C888        C  0.42123503  0.92532749  0.90993621     1.08100
O889        O  0.45235556  0.55079600  0.95446601    -0.81500
O890        O  0.03300694  0.54598015  0.57815527    -0.81600
O891        O  0.03745424  0.56478694  0.94667916    -0.81500
O892        O  0.39956103  0.01580740  0.54941075    -0.81500
O893        O  0.45495295  0.05764841  0.55444347    -0.81600
O894        O  0.50961064  0.52860281  0.89447669    -0.81500
O895        O  0.39512714  0.51350160  0.96736555    -0.81500
O896        O  0.08108625  0.54680804  0.52504085    -0.81600
Co897      Co  0.48635919  0.50187097  0.94103610     1.51500
Co898      Co  0.99271456  0.00737578  0.54975761     1.51700
Co899      Co  0.03660604  0.52266122  0.98955982     1.51600
Co900      Co  0.41367100  0.97257022  0.50523710     1.51500
O901        O  0.48235989  0.98521741  0.97918454    -1.43500
C902        C  0.41333810  0.54698730  0.95677461     1.08100
C903        C  0.07030604  0.55723001  0.56341214     1.08200
C904        C  0.02994311  0.56036931  0.90892893     1.08100
C905        C  0.41954492  0.54828456  0.54966020     1.08100
O906        O  0.31661237  0.78882786  0.91926824    -0.81500
O907        O  0.26057688  0.72762502  0.58579686    -0.81500
O908        O  0.30287781  0.81328767  0.51269230    -0.81600
O909        O  0.26148538  0.66444614  0.96602028    -0.81500
O910        O  0.26159714  0.80597057  0.56945078    -0.81600
O911        O  0.30812104  0.70987771  0.94278438    -0.81500
O912        O  0.28608939  0.69001377  0.53439843    -0.81500
O913        O  0.27496290  0.83990754  0.92575494    -0.81600
C914        C  0.30879237  0.82499583  0.91056862     1.08200
C915        C  0.28756195  0.70335464  0.57045881     1.08100
C916        C  0.29546537  0.81977041  0.55075627     1.08200
C917        C  0.29777968  0.67299553  0.94974538     1.08100
O918        O  0.22252197  0.70296742  0.91993703    -0.81500
O919        O  0.17697620  0.79363895  0.54237284    -0.81600
O920        O  0.19102851  0.81468761  0.94680117    -0.81500
O921        O  0.21114560  0.64795611  0.53398216    -0.81500
O922        O  0.17851512  0.70429023  0.56125511    -0.81600
O923        O  0.22980956  0.78139790  0.89819922    -0.81500
O924        O  0.18236517  0.70393694  0.97772118    -0.81500
O925        O  0.20221309  0.83623067  0.02793965    -0.81600
Co926      Co  0.26801714  0.74673990  0.92520763     1.51500
Co927      Co  0.22101367  0.75763871  0.55803467     1.51700
Co928      Co  0.23950436  0.82864856  0.97710398     1.51600
Co929      Co  0.23475739  0.69480191  0.50743051     1.51500
O930        O  0.25026733  0.76418083  0.98587631    -1.43500
C931        C  0.18863313  0.69288244  0.94038194     1.08100
C932        C  0.18493651  0.83214436  0.53845041     1.08200
C933        C  0.19769308  0.80186659  0.91014445     1.08100
C934        C  0.18299978  0.66384422  0.55910229     1.08100
O935        O  0.04884196  0.79293838  0.79341589    -0.81500
O936        O  0.48668378  0.77945711  0.65269552    -0.81500
O937        O  0.06266077  0.78878241  0.71097507    -0.81600
O938        O  0.41000212  0.79691557  0.76699418    -0.81500
O939        O  0.06560300  0.75977815  0.65005403    -0.81600
O940        O  0.45509154  0.80281107  0.81344787    -0.81500
O941        O  0.47865959  0.81005714  0.71385550    -0.81500
O942        O  0.09990161  0.75226263  0.76609139    -0.81600
C943        C  0.08744999  0.78268035  0.79016674     1.08200
C944        C  0.47835253  0.81119388  0.67587200     1.08100
C945        C  0.07681590  0.78874961  0.67459645     1.08200
C946        C  0.42028844  0.81371781  0.80132334     1.08100
O947        O  0.45937679  0.71823650  0.80698874    -0.81500
O948        O  0.03813585  0.67491279  0.65499310    -0.81600
O949        O  0.04527379  0.68506922  0.76652997    -0.81500
O950        O  0.41991310  0.74547232  0.68954247    -0.81500
O951        O  0.45925785  0.69646497  0.65690804    -0.81600
O952        O  0.50225546  0.71788971  0.80979572    -0.81500
O953        O  0.42076735  0.71059771  0.75777049    -0.81500
O954        O  0.08737411  0.69963860  0.69292607    -0.81600
Co955      Co  0.48806310  0.76329825  0.77237051     1.51500
Co956      Co  0.01004479  0.72848057  0.65762206     1.51700
Co957      Co  0.05317060  0.73604127  0.73715672     1.51600
Co958      Co  0.45241745  0.75954877  0.73731860     1.51500
O959        O  0.50284261  0.72555474  0.71997143    -1.43500
C960        C  0.42878154  0.69926461  0.79132723     1.08100
C961        C  0.07477929  0.67327225  0.66519247     1.08200
C962        C  0.03593881  0.69144101  0.80423972     1.08100
C963        C  0.42486544  0.71436613  0.66384660     1.08100
O964        O  0.30593896  0.96829709  0.81908070    -0.81500
O965        O  0.29558855  0.53235159  0.68701359    -0.81500
O966        O  0.30459936  0.95627748  0.69028405    -0.81600
O967        O  0.27327915  0.59509385  0.77629399    -0.81500
O968        O  0.26907900  0.97080697  0.63808942    -0.81600
O969        O  0.30795503  0.53829803  0.77484650    -0.81500
O970        O  0.26606828  0.59152862  0.69226450    -0.81500
O971        O  0.29788525  0.91625922  0.77112214    -0.81600
C972        C  0.31427844  0.93082973  0.80436236     1.08200
C973        C  0.29610808  0.56938935  0.67787311     1.08100
C974        C  0.29927040  0.95317375  0.65147087     1.08200
C975        C  0.30614626  0.57711626  0.78211466     1.08100
O976        O  0.23224900  0.55248204  0.83160858    -0.81500
O977        O  0.19496894  0.95686588  0.68209925    -0.81600
O978        O  0.20969651  0.92521303  0.77147143    -0.81500
O979        O  0.17823582  0.57316746  0.70803420    -0.81500
O980        O  0.21084407  0.53826284  0.65604862    -0.81600
O981        O  0.22393699  0.96706567  0.82038300    -0.81500
O982        O  0.18744707  0.57469312  0.79126136    -0.81500
O983        O  0.23144654  0.90701836  0.69985792    -0.81600
Co984      Co  0.25705404  0.50587745  0.79336238     1.51500
Co985      Co  0.24327468  0.99669311  0.68538668     1.51700
Co986      Co  0.25864114  0.94786559  0.73753848     1.51600
Co987      Co  0.22633123  0.57973486  0.74225426     1.51500
O988        O  0.23126356  0.00669041  0.74204827    -1.43500
C989        C  0.19915201  0.57179229  0.82646939     1.08100
C990        C  0.19964163  0.91838444  0.68435985     1.08200
C991        C  0.20203645  0.93781782  0.80748137     1.08100
C992        C  0.18209326  0.56320460  0.67002291     1.08100
C993        C  0.34044618  0.60327924  0.79929721    -0.07500
C994        C  0.33027655  0.64315559  0.81611998    -0.18600
C995        C  0.36088886  0.67409366  0.82198553     0.09700
C996        C  0.40270979  0.66584591  0.80985217    -0.07400
C997        C  0.41372223  0.62446800  0.80026863    -0.18700
C998        C  0.38276570  0.59251854  0.79617995     0.09700
S999        S  0.34439693  0.72544664  0.83904178    -0.33600
S1000       S  0.39804311  0.53994521  0.78237467    -0.33600
H1001       H  0.44089020  0.54731531  0.78570050     0.27700
H1002       H  0.38283641  0.73946096  0.85271550     0.27700
H1003       H  0.29801572  0.65142341  0.82212111     0.18300
H1004       H  0.44610340  0.61798737  0.79170226     0.18300
C1005       C  0.10759653  0.82178541  0.66307396    -0.07500
C1006       C  0.09537881  0.86281617  0.67068184    -0.18600
C1007       C  0.12475061  0.89566213  0.67483953     0.09700
C1008       C  0.16763904  0.88710530  0.67152505    -0.07400
C1009       C  0.17984241  0.84643964  0.65982297    -0.18700
C1010       C  0.15020375  0.81366302  0.65568152     0.09700
S1011       S  0.10609095  0.94698014  0.68939252    -0.33600
S1012       S  0.16690089  0.76107535  0.64579401    -0.33600
H1013       H  0.20990941  0.77053921  0.64436939     0.27700
H1014       H  0.06550933  0.93915682  0.67791932     0.27700
H1015       H  0.06255039  0.86863706  0.67674678     0.18300
H1016       H  0.21265434  0.83998217  0.65626797     0.18300
C1017       C  0.32380157  0.92468233  0.62287491    -0.07500
C1018       C  0.33242369  0.88639718  0.63729273    -0.18600
C1019       C  0.32910766  0.84988495  0.61216488     0.09700
C1020       C  0.31984603  0.85252685  0.57178111    -0.07400
C1021       C  0.32197054  0.89128947  0.55524405    -0.18700
C1022       C  0.32298946  0.92746829  0.58048200     0.09700
S1023       S  0.33257068  0.80014545  0.63263288    -0.33600
S1024       S  0.31421805  0.97495137  0.55780126    -0.33600
H1025       H  0.32780349  0.00066548  0.59024685     0.27700
H1026       H  0.34985468  0.81525999  0.66845923     0.27700
H1027       H  0.33460456  0.88406114  0.66947276     0.18300
H1028       H  0.31616455  0.89353782  0.52376959     0.18300
C1029       C  0.16257826  0.66024432  0.92109305    -0.07500
C1030       C  0.16807892  0.61964481  0.93170253    -0.18600
C1031       C  0.17386763  0.58736478  0.90136349     0.09700
C1032       C  0.17633004  0.59669397  0.86021951    -0.07400
C1033       C  0.16063555  0.63448948  0.85106621    -0.18700
C1034       C  0.15243078  0.66578600  0.88163258     0.09700
S1035       S  0.17870623  0.53567467  0.91642893    -0.33600
S1036       S  0.13476659  0.71483171  0.86946042    -0.33600
H1037       H  0.12826034  0.70338109  0.82875758     0.27700
H1038       H  0.16202953  0.51713373  0.88160735     0.27700
H1039       H  0.17321778  0.61406216  0.96269351     0.18300
H1040       H  0.15845858  0.64111748  0.81976426     0.18300
C1041       C  0.16965860  0.81154614  0.87946446    -0.07500
C1042       C  0.18582261  0.80875350  0.83846372    -0.18600
C1043       C  0.15943717  0.80499028  0.80728716     0.09700
C1044       C  0.11616373  0.80376171  0.81743395    -0.07400
C1045       C  0.10042988  0.81452686  0.85752135    -0.18700
C1046       C  0.12684151  0.81878755  0.88881436     0.09700
S1047       S  0.18109941  0.79983457  0.75501162    -0.33600
S1048       S  0.10441839  0.82901737  0.94015830    -0.33600
H1049       H  0.06397754  0.83693963  0.93098819     0.27700
H1050       H  0.22312317  0.80612796  0.76254735     0.27700
H1051       H  0.21904960  0.80664454  0.83089398     0.18300
H1052       H  0.06708542  0.81516456  0.86502285     0.18300
C1053       C  0.32153791  0.69353478  0.59425016    -0.07500
C1054       C  0.36184730  0.69272176  0.57448208    -0.18600
C1055       C  0.39659257  0.69728297  0.59675234     0.09700
C1056       C  0.39067474  0.70095221  0.63956222    -0.07400
C1057       C  0.35061112  0.69734530  0.65928525    -0.18700
C1058       C  0.31593479  0.69339147  0.63716987     0.09700
S1059       S  0.44761321  0.70396951  0.57006052    -0.33600
S1060       S  0.26565747  0.69112095  0.66592208    -0.33600
H1061       H  0.24475849  0.67076734  0.63468327     0.27700
H1062       H  0.43354803  0.71923826  0.53522447     0.27700
H1063       H  0.36617362  0.69249546  0.54166392     0.18300
H1064       H  0.34624253  0.69953401  0.69221338     0.18300
C1065       C  0.38825091  0.58099666  0.94680162    -0.07700
C1066       C  0.35011104  0.57063799  0.93096889    -0.18600
C1067       C  0.32108159  0.60072474  0.92862140     0.09700
C1068       C  0.32969143  0.64172728  0.94309822    -0.07400
C1069       C  0.37273419  0.64626395  0.45292185    -0.18700
C1070       C  0.39906808  0.61349502  0.45451442     0.09700
S1071       S  0.27404779  0.58496054  0.90665657    -0.33600
S1072       S  0.44346640  0.62238309  0.48294993    -0.33600
H1073       H  0.44526060  0.66576971  0.48212493     0.27700
H1074       H  0.26738922  0.62353213  0.89161713     0.27700
H1075       H  0.34230767  0.53866350  0.92160118     0.18300
H1076       H  0.38077120  0.67656806  0.46666609     0.18300
C1077       C  0.09469293  0.92657632  0.54181788    -0.07500
C1078       C  0.06216337  0.87141055  0.03976860    -0.18600
C1079       C  0.08923618  0.83815159  0.04016653     0.09700
C1080       C  0.15237061  0.86381936  0.54481413    -0.07400
C1081       C  0.16579516  0.90543846  0.54055755    -0.18700
C1082       C  0.13771681  0.93673861  0.53917719     0.09700
S1083       S  0.06991214  0.78523646  0.03282014    -0.33600
S1084       S  0.15751859  0.98965602  0.53445913    -0.33600
H1085       H  0.19965889  0.98253213  0.53787452     0.27700
H1086       H  0.02894832  0.79467345  0.02677377     0.27700
H1087       H  0.03019474  0.86530926  0.03321491     0.18300
H1088       H  0.19874116  0.91356439  0.53706435     0.18300
C1089       C  0.09607521  0.94273114  0.88710586    -0.07500
C1090       C  0.13280153  0.93213730  0.90219088    -0.18600
C1091       C  0.16772799  0.92255685  0.87565266     0.09700
C1092       C  0.16556690  0.92380514  0.83337958    -0.07400
C1093       C  0.11908133  0.42518204  0.82310886    -0.18700
C1094       C  0.08408191  0.43177806  0.85153459     0.09700
S1095       S  0.21630469  0.91535659  0.89635475    -0.33600
S1096       S  0.03328299  0.43521686  0.83367089    -0.33600
H1097       H  0.04567603  0.42726316  0.79210223     0.27700
H1098       H  0.19957502  0.91072908  0.93665831     0.27700
H1099       H  0.13512152  0.93480859  0.93468498     0.18300
H1100       H  0.11555950  0.42417722  0.79088618     0.18300
C1101       C  0.39004734  0.57347700  0.57814602    -0.07500
C1102       C  0.40119824  0.58500531  0.61743196    -0.18600
C1103       C  0.37051113  0.58968253  0.65072251     0.09700
C1104       C  0.32788239  0.58277631  0.64499167    -0.07400
C1105       C  0.31491477  0.08992933  0.61126730    -0.18700
C1106       C  0.34628699  0.08422426  0.57904272     0.09700
S1107       S  0.38598297  0.60319401  0.70055046    -0.33600
S1108       S  0.33137110  0.07850032  0.52806603    -0.33600
H1109       H  0.29076281  0.09281031  0.53679487     0.27700
H1110       H  0.42827535  0.61193648  0.68870502     0.27700
H1111       H  0.43378774  0.58599904  0.62281618     0.18300
H1112       H  0.28259640  0.08888862  0.60489382     0.18300
C1113       C  0.44260039  0.90877500  0.60708963    -0.07500
C1114       C  0.45511525  0.91898184  0.64641644    -0.18600
C1115       C  0.46547083  0.88813897  0.67125123     0.09700
C1116       C  0.46294579  0.84639821  0.65634300    -0.07400
C1117       C  0.44640379  0.83636611  0.61903661    -0.18700
C1118       C  0.43729303  0.86644100  0.59382209     0.09700
S1119       S  0.48334221  0.90252627  0.72049556    -0.33600
S1120       S  0.42355296  0.84842338  0.54353366    -0.33600
H1121       H  0.41012123  0.80781751  0.55264828     0.27700
H1122       H  0.47957911  0.94560356  0.71934674     0.27700
H1123       H  0.45850982  0.95125186  0.65704775     0.18300
H1124       H  0.44255079  0.80419353  0.60817934     0.18300
C1125       C  0.04057210  0.59461411  0.88339777    -0.07500
C1126       C  0.03096794  0.63422177  0.89995781    -0.18600
C1127       C  0.03110828  0.66729492  0.87539253     0.09700
C1128       C  0.04138426  0.66003423  0.83290511    -0.07400
C1129       C  0.05558187  0.62114654  0.81729899    -0.18700
C1130       C  0.05569137  0.58834070  0.84244817     0.09700
S1131       S  0.01655515  0.71733559  0.89956785    -0.33600
S1132       S  0.57232232  0.53776730  0.82068562    -0.33600
H1133       H  0.57858674  0.54752518  0.77977524     0.27700
H1134       H  0.01757996  0.70741910  0.94013243     0.27700
H1135       H  0.02100011  0.63870207  0.93197946     0.18300
H1136       H  0.55631517  0.61287461  0.78289459     0.18300
C1137       C  0.83178527  0.40382416  0.33822745     0.85100
C1138       C  0.80506031  0.37613730  0.36742734    -0.55100
C1139       C  0.82575542  0.35176754  0.39062320     0.08000
C1140       C  0.87452328  0.35521994  0.37931860     0.19000
C1141       C  0.86286638  0.42705198  0.36540118    -0.55900
C1142       C  0.88514860  0.40297257  0.38800944     0.08100
C1143       C  0.85872666  0.37240669  0.31116869    -0.55400
C1144       C  0.88179072  0.34643990  0.33076526     0.08700
H1145       H  0.77165663  0.37417200  0.36839493     0.13200
H1146       H  0.89223031  0.33495911  0.39662893    -0.01000
H1147       H  0.86608917  0.46069197  0.36743717     0.13500
H1148       H  0.85966291  0.37107385  0.27825163     0.13300
C1149       C  0.65080333  0.08332746  0.14465280     0.85100
C1150       C  0.62298302  0.11587911  0.17001656    -0.55100
C1151       C  0.59971675  0.13964645  0.14865858     0.08000
C1152       C  0.60641898  0.12770312  0.10129901     0.19000
C1153       C  0.62014270  0.05713796  0.11876375    -0.55900
C1154       C  0.59709211  0.07894249  0.09474220     0.08100
C1155       C  0.67676639  0.10961982  0.11348870    -0.55400
C1156       C  0.65470679  0.13375538  0.09093602     0.08700
H1157       H  0.62211033  0.12029476  0.20286591     0.13200
H1158       H  0.58811464  0.14640860  0.08300747    -0.01000
H1159       H  0.61744541  0.02361565  0.11917458     0.13500
H1160       H  0.71057108  0.10996501  0.11038933     0.13300
O1161       O  0.52435820  0.44730587  0.41198976    -0.81500
O1162       O  0.96013777  0.47987254  0.08746169    -0.81500
O1163       O  0.56021793  0.45589556  0.50096225    -0.81600
O1164       O  0.91561611  0.41906088  0.45444082    -0.81500
O1165       O  0.53181475  0.46169766  0.04906214    -0.81600
O1166       O  0.93733799  0.45495917  0.40273856    -0.81500
O1167       O  0.93054329  0.43505220  0.04379671    -0.81500
O1168       O  0.57495581  0.48332708  0.44249510    -0.81600
C1169       C  0.56270849  0.45412738  0.41661494     1.08200
C1170       C  0.94383696  0.44419499  0.07839142     1.08100
C1171       C  0.56703752  0.45903985  0.02965072     1.08200
C1172       C  0.91535768  0.42500604  0.41668869     1.08100
O1173       O  0.95054549  0.04547632  0.45506432    -0.81500
O1174       O  0.52960007  0.04507551  0.07802748    -0.81600
O1175       O  0.53780963  0.06126454  0.44876859    -0.81500
O1176       O  0.90338494  0.51693779  0.04938843    -0.81500
O1177       O  0.95921825  0.55851944  0.05413122    -0.81600
O1178       O  0.00660652  0.02170548  0.39494263    -0.81500
O1179       O  0.89266174  0.00896741  0.46560442    -0.81500
O1180       O  0.58053476  0.04476659  0.02711873    -0.81600
Co1181     Co  0.98339123  0.99588436  0.44206972     1.51500
Co1182     Co  0.49712071  0.51105773  0.04877966     1.51700
Co1183     Co  0.53436573  0.01980166  0.49253629     1.51600
Co1184     Co  0.91625418  0.47377018  0.00460890     1.51500
O1185       O  0.98018190  0.48551171  0.48239746    -1.43500
C1186       C  0.91171463  0.04238338  0.45611377     1.08100
C1187       C  0.56759311  0.05598352  0.06499888     1.08200
C1188       C  0.53114129  0.05642329  0.41081078     1.08100
C1189       C  0.91622428  0.04507909  0.04899411     1.08100
O1190       O  0.80616684  0.28891392  0.42861960    -0.81500
O1191       O  0.75252426  0.22319822  0.08502288    -0.81500
O1192       O  0.79954566  0.30685167  0.01185505    -0.81600
O1193       O  0.76031530  0.15451939  0.46889399    -0.81500
O1194       O  0.75562264  0.30174077  0.06728090    -0.81600
O1195       O  0.80419075  0.20518787  0.45174104    -0.81500
O1196       O  0.78295189  0.19170607  0.03255497    -0.81500
O1197       O  0.77058275  0.34557579  0.44631200    -0.81600
C1198       C  0.80029826  0.32779293  0.42384642     1.08200
C1199       C  0.78221906  0.20228161  0.06943316     1.08100
C1200       C  0.79058725  0.31399351  0.04968586     1.08200
C1201       C  0.79618575  0.16698626  0.45454780     1.08100
O1202       O  0.71989880  0.19211135  0.42411520    -0.81500
O1203       O  0.67215074  0.29230788  0.03973579    -0.81600
O1204       O  0.69280870  0.30345930  0.45465120    -0.81500
O1205       O  0.70821539  0.14673166  0.03730510    -0.81500
O1206       O  0.67146510  0.20195471  0.05978726    -0.81600
O1207       O  0.72436532  0.27014675  0.40360346    -0.81500
O1208       O  0.67840082  0.18767139  0.48092513    -0.81500
O1209       O  0.70895602  0.33997556  0.52347357    -0.81600
Co1210     Co  0.76186137  0.23926414  0.43345132     1.51500
Co1211     Co  0.71432033  0.25467851  0.05607614     1.51700
Co1212     Co  0.74427957  0.30455477  0.48282500     1.51600
Co1213     Co  0.73023316  0.19234944  0.00689114     1.51500
O1214       O  0.73719189  0.24723123  0.49603279    -1.43500
C1215       C  0.68557522  0.18023652  0.44318682     1.08100
C1216       C  0.68218250  0.33048281  0.03524151     1.08200
C1217       C  0.69477545  0.29191272  0.41791600     1.08100
C1218       C  0.67841522  0.16216698  0.06085772     1.08100
O1219       O  0.54311011  0.29133189  0.30293581    -0.81500
O1220       O  0.97907865  0.28448034  0.15832292    -0.81500
O1221       O  0.56029709  0.28966861  0.21921162    -0.81600
O1222       O  0.89707176  0.29674107  0.27147661    -0.81500
O1223       O  0.56191598  0.26375556  0.15697530    -0.81600
O1224       O  0.94625806  0.30510000  0.31329074    -0.81500
O1225       O  0.96636908  0.31477053  0.21971357    -0.81500
O1226       O  0.59481227  0.25141226  0.27483985    -0.81600
C1227       C  0.58154884  0.28056955  0.30028061     1.08200
C1228       C  0.96893980  0.31588110  0.18154735     1.08100
C1229       C  0.57356215  0.29156176  0.18272376     1.08200
C1230       C  0.90936846  0.31404695  0.30459598     1.08100
O1231       O  0.94821791  0.21878004  0.31541300    -0.81500
O1232       O  0.53566241  0.17714000  0.15968326    -0.81600
O1233       O  0.54018759  0.18410777  0.27067926    -0.81500
O1234       O  0.91100960  0.24783789  0.19314768    -0.81500
O1235       O  0.95260471  0.20058654  0.16055193    -0.81600
O1236       O  0.01126265  0.22152826  0.32216119    -0.81500
O1237       O  0.91479253  0.21191656  0.26171972    -0.81500
O1238       O  0.58462270  0.19991106  0.19853881    -0.81600
Co1239     Co  0.98785037  0.25918249  0.28719929     1.51500
Co1240     Co  0.50670403  0.23094934  0.16366008     1.51700
Co1241     Co  0.54947643  0.23610998  0.24332149     1.51600
Co1242     Co  0.94219464  0.26321748  0.24210267     1.51500
O1243       O  0.99337876  0.23300096  0.22553258    -1.43500
C1244       C  0.92104221  0.19968954  0.29567252     1.08100
C1245       C  0.57209300  0.17407424  0.17012402     1.08200
C1246       C  0.53043023  0.18898739  0.30842092     1.08100
C1247       C  0.91752870  0.21737372  0.16682869     1.08100
O1248       O  0.79081439  0.46795523  0.33023831    -0.81500
O1249       O  0.79123083  0.02497919  0.18674356    -0.81500
O1250       O  0.78758617  0.44042782  0.19390955    -0.81600
O1251       O  0.76993698  0.08890813  0.27722810    -0.81500
O1252       O  0.76607723  0.47045672  0.14064948    -0.81600
O1253       O  0.80586395  0.03287750  0.27527646    -0.81500
O1254       O  0.76267490  0.08497369  0.19361312    -0.81500
O1255       O  0.79666450  0.42169610  0.27746591    -0.81600
C1256       C  0.80540282  0.43277489  0.31422641     1.08200
C1257       C  0.79186303  0.06225454  0.17803429     1.08100
C1258       C  0.78833709  0.44438639  0.15488219     1.08200
C1259       C  0.80330038  0.07169115  0.28245916     1.08100
O1260       O  0.73081671  0.04631084  0.33252957    -0.81500
O1261       O  0.69306883  0.45919608  0.18475327    -0.81600
O1262       O  0.71338113  0.42081995  0.27189508    -0.81500
O1263       O  0.67465228  0.06791971  0.21005040    -0.81500
O1264       O  0.70607295  0.03266855  0.15756329    -0.81600
O1265       O  0.70797569  0.46999891  0.31790486    -0.81500
O1266       O  0.68487055  0.06733201  0.29262468    -0.81500
O1267       O  0.71666118  0.41921356  0.22905203    -0.81600
Co1268     Co  0.75544392  0.00006647  0.29499807     1.51500
Co1269     Co  0.74185420  0.49688944  0.18812403     1.51700
Co1270     Co  0.76100782  0.46103112  0.25155947     1.51600
Co1271     Co  0.72311809  0.07354039  0.24374498     1.51500
O1272       O  0.72647008  0.51136411  0.24358621    -1.43500
C1273       C  0.69677978  0.06387141  0.32763262     1.08100
C1274       C  0.69187687  0.42500037  0.20132558     1.08200
C1275       C  0.69624492  0.43472473  0.30608364     1.08100
C1276       C  0.67830307  0.05898250  0.17190324     1.08100
C1277       C  0.83674469  0.09900233  0.29946152    -0.07500
C1278       C  0.82468249  0.13800595  0.31737764    -0.18600
C1279       C  0.85364229  0.17033043  0.32368533     0.09700
C1280       C  0.89568312  0.16436044  0.31091237    -0.07400
C1281       C  0.90885859  0.12397103  0.29946934    -0.18700
C1282       C  0.87961334  0.09059299  0.29491608     0.09700
S1283       S  0.83461285  0.22021134  0.34294603    -0.33600
S1284       S  0.89750330  0.03935762  0.27906550    -0.33600
H1285       H  0.93984322  0.04843487  0.28389117     0.27700
H1286       H  0.87233575  0.23551064  0.35729290     0.27700
H1287       H  0.79203947  0.14453543  0.32405395     0.18300
H1288       H  0.94152484  0.11941569  0.29031918     0.18300
C1289       C  0.60383909  0.32580205  0.17273161    -0.07500
C1290       C  0.59039169  0.36641340  0.18142008    -0.18600
C1291       C  0.61866184  0.39964792  0.18898216     0.09700
C1292       C  0.66131580  0.39194576  0.18920892    -0.07400
C1293       C  0.67526348  0.35212038  0.17662182    -0.18700
C1294       C  0.64691628  0.31905007  0.16789852     0.09700
S1295       S  0.59920110  0.45078820  0.20224435    -0.33600
S1296       S  0.66552500  0.26764230  0.15426592    -0.33600
H1297       H  0.70822442  0.27898112  0.15123218     0.27700
H1298       H  0.56118677  0.44326455  0.18502973     0.27700
H1299       H  0.55733620  0.37152566  0.18535997     0.18300
H1300       H  0.70825755  0.34669263  0.17496051     0.18300
C1301       C  0.81209925  0.41516324  0.12644765    -0.07500
C1302       C  0.81906516  0.37635617  0.14032028    -0.18600
C1303       C  0.81991027  0.34127220  0.11339932     0.09700
C1304       C  0.81482260  0.34550706  0.07222405    -0.07400
C1305       C  0.81847691  0.38513978  0.05727244    -0.18700
C1306       C  0.81752091  0.42033588  0.08419344     0.09700
S1307       S  0.82170108  0.29099114  0.13264466    -0.33600
S1308       S  0.81806615  0.47023654  0.06300807    -0.33600
H1309       H  0.83289519  0.49232838  0.09717845     0.27700
H1310       H  0.83027396  0.30446356  0.17238020     0.27700
H1311       H  0.81777696  0.37245595  0.17261408     0.18300
H1312       H  0.81641101  0.38879079  0.02524624     0.18300
C1313       C  0.66006580  0.14861924  0.42264216    -0.07500
C1314       C  0.66524964  0.10803109  0.43305621    -0.18600
C1315       C  0.67243415  0.07658340  0.40235195     0.09700
C1316       C  0.67311698  0.08653933  0.36160896    -0.07400
C1317       C  0.65610394  0.12379062  0.35307103    -0.18700
C1318       C  0.64953296  0.15504919  0.38359591     0.09700
S1319       S  0.68391555  0.02567020  0.41538713    -0.33600
S1320       S  0.63440767  0.20487503  0.37121614    -0.33600
H1321       H  0.62462454  0.19326871  0.33143081     0.27700
H1322       H  0.67123219  0.03171649  0.45706340     0.27700
H1323       H  0.67113009  0.10257184  0.46388040     0.18300
H1324       H  0.65309360  0.13064705  0.32197483     0.18300
C1325       C  0.66407950  0.30323479  0.39075604    -0.07500
C1326       C  0.67877139  0.30953160  0.35029841    -0.18600
C1327       C  0.65163967  0.30678094  0.31972116     0.09700
C1328       C  0.60895176  0.29913377  0.33007802    -0.07400
C1329       C  0.59352691  0.29991100  0.37114256    -0.18700
C1330       C  0.62078707  0.30049474  0.40166644     0.09700
S1331       S  0.67186341  0.31081300  0.26752190    -0.33600
S1332       S  0.60032703  0.28750899  0.45182185    -0.33600
H1333       H  0.55805150  0.29173240  0.44657361     0.27700
H1334       H  0.71293960  0.32278911  0.27516540     0.27700
H1335       H  0.71196781  0.31303374  0.34220093     0.18300
H1336       H  0.56056005  0.29401048  0.37882031     0.18300
C1337       C  0.81640450  0.19334299  0.09374791    -0.07500
C1338       C  0.85717077  0.19524290  0.07506854    -0.18600
C1339       C  0.89122243  0.20053934  0.09835594     0.09700
C1340       C  0.88425529  0.20297970  0.14119439    -0.07400
C1341       C  0.84395468  0.19602515  0.15967748    -0.18700
C1342       C  0.80988067  0.19060517  0.13634727     0.09700
S1343       S  0.94264892  0.20894242  0.07298870    -0.33600
S1344       S  0.75819654  0.18299995  0.16149800    -0.33600
H1345       H  0.77030131  0.18026112  0.20089055     0.27700
H1346       H  0.92948631  0.21987172  0.03600590     0.27700
H1347       H  0.86216949  0.19631812  0.04238881     0.18300
H1348       H  0.83906097  0.19688705  0.19251515     0.18300
C1349       C  0.88807588  0.07726386  0.44633112    -0.07700
C1350       C  0.85173221  0.06822482  0.42700121    -0.18600
C1351       C  0.82243141  0.09824536  0.42612733     0.09700
C1352       C  0.82952356  0.13789055  0.44487502    -0.07400
C1353       C  0.86753407  0.14474894  0.95475059    -0.18700
C1354       C  0.89464473  0.11265372  0.95611794     0.09700
S1355       S  0.77611439  0.08354635  0.40222705    -0.33600
S1356       S  0.94001145  0.12287133  0.98306237    -0.33600
H1357       H  0.94069647  0.16625317  0.98195770     0.27700
H1358       H  0.76705035  0.12358495  0.39248662     0.27700
H1359       H  0.84500040  0.03696831  0.41466813     0.18300
H1360       H  0.87483150  0.17517469  0.96865232     0.18300
C1361       C  0.59421212  0.42532752  0.03547056    -0.07500
C1362       C  0.61649573  0.42489967  0.56616451    -0.18600
C1363       C  0.64735000  0.39577023  0.56646131     0.09700
C1364       C  0.65092956  0.36296141  0.04125740    -0.07400
C1365       C  0.60962201  0.35243143  0.03366461    -0.18700
C1366       C  0.58120861  0.38328145  0.03018932     0.09700
S1367       S  0.69631802  0.41114949  0.58631083    -0.33600
S1368       S  0.52997557  0.36893029  0.01509349    -0.33600
H1369       H  0.53291525  0.32578981  0.01671033     0.27700
H1370       H  0.68471937  0.45090573  0.60216258     0.27700
H1371       H  0.62324006  0.45718711  0.57493188     0.18300
H1372       H  0.60026031  0.32017804  0.02827853     0.18300
C1373       C  0.59367670  0.43020262  0.38925015    -0.07500
C1374       C  0.63238584  0.42530807  0.40304776    -0.18600
C1375       C  0.66732688  0.41879385  0.37557121     0.09700
C1376       C  0.66326349  0.41480852  0.33304961    -0.07400
C1377       C  0.61689314  0.92060739  0.32931720    -0.18700
C1378       C  0.58197056  0.92642724  0.35773362     0.09700
S1379       S  0.71724036  0.42747840  0.39534940    -0.33600
S1380       S  0.53108994  0.92888147  0.33981587    -0.33600
H1381       H  0.54291104  0.91684257  0.29886403     0.27700
H1382       H  0.70404542  0.41965372  0.43592384     0.27700
H1383       H  0.63630552  0.43250817  0.43491963     0.18300
H1384       H  0.61326386  0.91954371  0.29709361     0.18300
C1385       C  0.88476314  0.06815405  0.07725210    -0.07500
C1386       C  0.89535124  0.08304169  0.11597361    -0.18600
C1387       C  0.86460301  0.08674280  0.14938637     0.09700
C1388       C  0.82255869  0.07548199  0.14423419    -0.07400
C1389       C  0.82232106  0.59207460  0.11803985    -0.18700
C1390       C  0.85306174  0.58682994  0.08529615     0.09700
S1391       S  0.87937325  0.10405457  0.19874705    -0.33600
S1392       S  0.83721167  0.58628855  0.03487581    -0.33600
H1393       H  0.79961586  0.60658151  0.04513746     0.27700
H1394       H  0.92096855  0.11531048  0.18634113     0.27700
H1395       H  0.92792060  0.08757848  0.12100936     0.18300
H1396       H  0.79031572  0.59566808  0.11207464     0.18300
C1397       C  0.94249442  0.41211323  0.10813792    -0.07500
C1398       C  0.95526969  0.42323869  0.14723188    -0.18600
C1399       C  0.96194627  0.39294473  0.17403992     0.09700
C1400       C  0.95492646  0.35105592  0.16146512    -0.07400
C1401       C  0.93713706  0.34065333  0.12497399    -0.18700
C1402       C  0.93249118  0.36993227  0.09737316     0.09700
S1403       S  0.98089569  0.40787770  0.22273103    -0.33600
S1404       S  0.91843967  0.35081960  0.04747019    -0.33600
H1405       H  0.91102562  0.30871154  0.05500014     0.27700
H1406       H  0.98302107  0.45095602  0.21859456     0.27700
H1407       H  0.96199498  0.45551066  0.15606681     0.18300
H1408       H  0.92956333  0.30842091  0.11663015     0.18300
C1409       C  0.54112941  0.09075360  0.38509975    -0.07500
C1410       C  0.53280784  0.13032510  0.40261257    -0.18600
C1411       C  0.52950981  0.16333390  0.37868072     0.09700
C1412       C  0.53667444  0.15661944  0.33583601    -0.07400
C1413       C  0.54971033  0.11779306  0.31875994    -0.18700
C1414       C  0.55201422  0.08463575  0.34314754     0.09700
S1415       S  0.51402654  0.21239044  0.40431374    -0.33600
S1416       S  0.06230587  0.03298084  0.31806929    -0.33600
H1417       H  0.06903928  0.04493979  0.27787516     0.27700
H1418       H  0.52198617  0.20352512  0.44376864     0.27700
H1419       H  0.52580546  0.13473266  0.43513971     0.18300
H1420       H  0.05110355  0.11171667  0.28471443     0.18300
C1421       C  0.83545311  0.41330793  0.84242819     0.85100
C1422       C  0.80967304  0.38536501  0.87188513    -0.55100
C1423       C  0.83102553  0.36047560  0.89386996     0.08000
C1424       C  0.87979909  0.36567115  0.88237737     0.19000
C1425       C  0.86679264  0.43753092  0.86879244    -0.55900
C1426       C  0.89026564  0.41419253  0.89085999     0.08100
C1427       C  0.86226498  0.38241873  0.81480716    -0.55400
C1428       C  0.88584153  0.35671582  0.83388951     0.08700
H1429       H  0.77620624  0.38341189  0.87346348     0.13200
H1430       H  0.89814610  0.34553623  0.89919428    -0.01000
H1431       H  0.86891410  0.47121839  0.87105520     0.13500
H1432       H  0.86216915  0.38073558  0.78195757     0.13300
C1433       C  0.64761305  0.08460637  0.64891554     0.85100
C1434       C  0.62253018  0.11871755  0.67538461    -0.55100
C1435       C  0.59835582  0.14277824  0.65506464     0.08000
C1436       C  0.60218736  0.13030299  0.60791109     0.19000
C1437       C  0.61375486  0.05950799  0.62575853    -0.55900
C1438       C  0.58934986  0.08239815  0.60377567     0.08100
C1439       C  0.67261075  0.10893766  0.61610467    -0.55400
C1440       C  0.65041917  0.13342348  0.59448336     0.08700
H1441       H  0.62343430  0.12317723  0.70807121     0.13200
H1442       H  0.58360560  0.14965482  0.59050753    -0.01000
H1443       H  0.60987455  0.02601325  0.62634096     0.13500
H1444       H  0.70632089  0.10797674  0.61134569     0.13300
O1445       O  0.52078478  0.45344200  0.92440790    -0.81500
O1446       O  0.95865239  0.48302378  0.57985119    -0.81500
O1447       O  0.57864501  0.48597967  0.00506230    -0.81600
O1448       O  0.91784340  0.42761966  0.95855664    -0.81500
O1449       O  0.53157279  0.46901368  0.55888066    -0.81600
O1450       O  0.94058527  0.46976576  0.91149914    -0.81500
O1451       O  0.93616934  0.43343528  0.53704775    -0.81500
O1452       O  0.57204660  0.49299879  0.94435566    -0.81600
C1453       C  0.55936023  0.46171766  0.92287003     1.08200
C1454       C  0.94525802  0.44567474  0.57254766     1.08100
C1455       C  0.55494314  0.44650898  0.53624513     1.08200
C1456       C  0.91890912  0.43701934  0.92149796     1.08100
O1457       O  0.94789555  0.04211724  0.93006406    -0.81500
O1458       O  0.52494537  0.03956975  0.59498812    -0.81600
O1459       O  0.52503327  0.07091236  0.97107271    -0.81500
O1460       O  0.90520113  0.51474866  0.53931784    -0.81500
O1461       O  0.95897288  0.55908673  0.53935583    -0.81600
O1462       O  0.03108267  0.03823579  0.91568780    -0.81500
O1463       O  0.89554414  0.00370830  0.95751051    -0.81500
O1464       O  0.55892895  0.06074934  0.53844123    -0.81600
Co1465     Co  0.98588061  0.99717166  0.92006793     1.51500
Co1466     Co  0.49893566  0.51483223  0.53955494     1.51700
Co1467     Co  0.53862093  0.01416321  0.99008365     1.51600
Co1468     Co  0.91776349  0.46891746  0.49660325     1.51500
O1469       O  0.97905668  0.48752933  0.99749804    -1.43500
C1470       C  0.91035288  0.03750288  0.94319175     1.08100
C1471       C  0.55549304  0.06087936  0.57806643     1.08200
C1472       C  0.53135027  0.07130948  0.93273379     1.08100
C1473       C  0.91446517  0.04791563  0.55898968     1.08100
O1474       O  0.80914136  0.29303767  0.92458236    -0.81500
O1475       O  0.74955654  0.22340617  0.58836042    -0.81500
O1476       O  0.79204091  0.31006525  0.51541125    -0.81600
O1477       O  0.76172175  0.15653521  0.96469918    -0.81500
O1478       O  0.74840467  0.30191401  0.57031533    -0.81600
O1479       O  0.80678547  0.20622709  0.94629691    -0.81500
O1480       O  0.78047330  0.19062945  0.53685805    -0.81500
O1481       O  0.77644009  0.34993191  0.94866421    -0.81600
C1482       C  0.80526344  0.33321684  0.92443592     1.08200
C1483       C  0.77975302  0.20264165  0.57339711     1.08100
C1484       C  0.78304262  0.31541380  0.55337888     1.08200
C1485       C  0.79751996  0.16801131  0.94961433     1.08100
O1486       O  0.72275073  0.19534477  0.92007483    -0.81500
O1487       O  0.66676390  0.28722044  0.54065547    -0.81600
O1488       O  0.69852330  0.30778926  0.95463578    -0.81500
O1489       O  0.70537079  0.14535219  0.54154508    -0.81500
O1490       O  0.66795299  0.20025814  0.56235339    -0.81600
O1491       O  0.72465729  0.27324898  0.90187907    -0.81500
O1492       O  0.68084938  0.18885531  0.97648400    -0.81500
O1493       O  0.71895485  0.34088998  0.02154414    -0.81600
Co1494     Co  0.76423792  0.24235850  0.92995618     1.51500
Co1495     Co  0.71005585  0.25288156  0.55850984     1.51700
Co1496     Co  0.75135096  0.30510939  0.97992878     1.51600
Co1497     Co  0.72788138  0.19084497  0.51084363     1.51500
O1498       O  0.73953875  0.24879838  0.99305292    -1.43500
C1499       C  0.68864285  0.18222326  0.93856283     1.08100
C1500       C  0.67368844  0.32607671  0.53872430     1.08200
C1501       C  0.69593432  0.29466150  0.91890352     1.08100
C1502       C  0.67480707  0.16082050  0.56408612     1.08100
O1503       O  0.53356110  0.28618354  0.81162891    -0.81500
O1504       O  0.97947245  0.28756029  0.66071710    -0.81500
O1505       O  0.55899753  0.29115841  0.72475306    -0.81600
O1506       O  0.89869336  0.30688797  0.77432291    -0.81500
O1507       O  0.56150294  0.26577469  0.66227475    -0.81600
O1508       O  0.94754919  0.31255851  0.81682960    -0.81500
O1509       O  0.96789737  0.32076818  0.72068614    -0.81500
O1510       O  0.59009078  0.25355312  0.78219168    -0.81600
C1511       C  0.57296659  0.27813648  0.81001000     1.08200
C1512       C  0.97040579  0.32035071  0.68230283     1.08100
C1513       C  0.57330969  0.29293401  0.68851152     1.08200
C1514       C  0.91161063  0.32339889  0.80758255     1.08100
O1515       O  0.94580473  0.22423377  0.81926520    -0.81500
O1516       O  0.53465532  0.18037870  0.66428019    -0.81600
O1517       O  0.53534699  0.18975127  0.78197817    -0.81500
O1518       O  0.90997734  0.25433736  0.69671205    -0.81500
O1519       O  0.95001362  0.20465215  0.66624517    -0.81600
O1520       O  0.00802067  0.23067263  0.83206024    -0.81500
O1521       O  0.91137255  0.22122802  0.76633712    -0.81500
O1522       O  0.58145951  0.20060526  0.70716752    -0.81600
Co1523     Co  0.98664381  0.26459429  0.79243660     1.51500
Co1524     Co  0.50576435  0.23409256  0.66739199     1.51700
Co1525     Co  0.54628847  0.23850743  0.75037254     1.51600
Co1526     Co  0.94173604  0.27059767  0.74546543     1.51500
O1527       O  0.99166195  0.23724101  0.73126830    -1.43500
C1528       C  0.91739938  0.20741587  0.79964515     1.08100
C1529       C  0.57016035  0.17637813  0.67691061     1.08200
C1530       C  0.51520703  0.19517505  0.81655525     1.08100
C1531       C  0.91556098  0.22271921  0.67149858     1.08100
O1532       O  0.79386692  0.47620865  0.83369384    -0.81500
O1533       O  0.79376732  0.03327419  0.68681278    -0.81500
O1534       O  0.78743331  0.44124725  0.69964423    -0.81600
O1535       O  0.76778361  0.08919285  0.77990447    -0.81500
O1536       O  0.76512968  0.46857500  0.64541898    -0.81600
O1537       O  0.80929118  0.03713213  0.77350007    -0.81500
O1538       O  0.76048174  0.09054526  0.69693013    -0.81500
O1539       O  0.79651817  0.42697192  0.78346199    -0.81600
C1540       C  0.80757516  0.44042275  0.81880793     1.08200
C1541       C  0.79206239  0.07110698  0.68129080     1.08100
C1542       C  0.78762358  0.44349094  0.66043905     1.08200
C1543       C  0.80298128  0.07498028  0.78381529     1.08100
O1544       O  0.73363261  0.04043120  0.83135456    -0.81500
O1545       O  0.69243852  0.46125888  0.69045598    -0.81600
O1546       O  0.71213613  0.42784099  0.77869266    -0.81500
O1547       O  0.67321445  0.06579593  0.71228490    -0.81500
O1548       O  0.70728936  0.03753422  0.65743307    -0.81600
O1549       O  0.70981574  0.47804042  0.82382990    -0.81500
O1550       O  0.68490317  0.05748635  0.79287435    -0.81500
O1551       O  0.71594160  0.42286059  0.73592049    -0.81600
Co1552     Co  0.76168580  0.99876181  0.78997727     1.51500
Co1553     Co  0.74276630  0.49693643  0.69211635     1.51700
Co1554     Co  0.76116594  0.46515863  0.75637849     1.51600
Co1555     Co  0.72188233  0.07230479  0.74549538     1.51500
O1556       O  0.72779202  0.51546425  0.74667774    -1.43500
C1557       C  0.69881161  0.05704529  0.82726379     1.08100
C1558       C  0.69107296  0.42763638  0.70796929     1.08200
C1559       C  0.69554702  0.44346047  0.81241491     1.08100
C1560       C  0.67703217  0.05997417  0.67387765     1.08100
C1561       C  0.83421801  0.10468534  0.80195927    -0.07500
C1562       C  0.82019590  0.14450245  0.81544999    -0.18600
C1563       C  0.84780802  0.17802904  0.82183141     0.09700
C1564       C  0.89069179  0.17247047  0.81401943    -0.07400
C1565       C  0.90519624  0.13194841  0.80732409    -0.18700
C1566       C  0.87715139  0.09761406  0.80280068     0.09700
S1567       S  0.82649056  0.22835468  0.83517237    -0.33600
S1568       S  0.89838808  0.04690496  0.79405670    -0.33600
H1569       H  0.86653376  0.02796144  0.81917549     0.27700
H1570       H  0.86211518  0.24613089  0.85190497     0.27700
H1571       H  0.78730033  0.15063008  0.81853650     0.18300
H1572       H  0.93837729  0.12735873  0.80228925     0.18300
C1573       C  0.60429573  0.32690521  0.67907969    -0.07500
C1574       C  0.59070052  0.36773076  0.68537837    -0.18600
C1575       C  0.61849791  0.40134267  0.69343518     0.09700
C1576       C  0.66083725  0.39397260  0.69636528    -0.07400
C1577       C  0.67510196  0.35377470  0.68639467    -0.18700
C1578       C  0.64740939  0.32036505  0.67740673     0.09700
S1579       S  0.59857712  0.45265511  0.70383644    -0.33600
S1580       S  0.66829739  0.26944661  0.66841708    -0.33600
H1581       H  0.63858922  0.25409791  0.64225187     0.27700
H1582       H  0.56400516  0.44512071  0.68119170     0.27700
H1583       H  0.55772391  0.37287485  0.68701195     0.18300
H1584       H  0.70789297  0.34811311  0.68679861     0.18300
C1585       C  0.81087772  0.41382352  0.63253965    -0.07500
C1586       C  0.81414488  0.37430049  0.64601437    -0.18600
C1587       C  0.81137085  0.33978040  0.61883988     0.09700
C1588       C  0.80757123  0.34527486  0.57750851    -0.07400
C1589       C  0.81488237  0.38489457  0.56306276    -0.18700
C1590       C  0.81692053  0.41950240  0.59043480     0.09700
S1591       S  0.80533021  0.28975204  0.63889743    -0.33600
S1592       S  0.82154473  0.47000146  0.57025921    -0.33600
H1593       H  0.83720129  0.49004032  0.60503555     0.27700
H1594       H  0.82265811  0.30082509  0.67571916     0.27700
H1595       H  0.81151424  0.36991656  0.67829644     0.18300
H1596       H  0.81367478  0.38947425  0.53108980     0.18300
C1597       C  0.66437209  0.15062215  0.91635986    -0.07500
C1598       C  0.66487463  0.11012353  0.92934813    -0.18600
C1599       C  0.67236461  0.07658800  0.90068881     0.09700
C1600       C  0.67807847  0.08450482  0.85929981    -0.07400
C1601       C  0.66710274  0.12289343  0.84711104    -0.18700
C1602       C  0.65995951  0.15595647  0.87532209     0.09700
S1603       S  0.67868234  0.02549681  0.91704247    -0.33600
S1604       S  0.65462151  0.20628510  0.85717874    -0.33600
H1605       H  0.64221386  0.19241891  0.81879225     0.27700
H1606       H  0.66376423  0.03428009  0.95790212     0.27700
H1607       H  0.66666447  0.10571021  0.96124767     0.18300
H1608       H  0.66900919  0.12862452  0.81513546     0.18300
C1609       C  0.65996563  0.30299179  0.89693570    -0.07500
C1610       C  0.66806971  0.31859970  0.85854429    -0.18600
C1611       C  0.63798638  0.31485561  0.83070920     0.09700
C1612       C  0.59882615  0.29598081  0.84166270    -0.07400
C1613       C  0.58881185  0.28530101  0.88181489    -0.18700
C1614       C  0.61938124  0.28779012  0.90952083     0.09700
S1615       S  0.65065597  0.33128559  0.78013201    -0.33600
S1616       S  0.60873404  0.26400186  0.95735633    -0.33600
H1617       H  0.56883116  0.24729050  0.95063316     0.27700
H1618       H  0.69219988  0.34413221  0.78468727     0.27700
H1619       H  0.69907819  0.33073663  0.84936892     0.18300
H1620       H  0.55878055  0.27050139  0.88987776     0.18300
C1621       C  0.81455547  0.19552621  0.59788643    -0.07500
C1622       C  0.85530002  0.19954712  0.57941641    -0.18600
C1623       C  0.88920053  0.20620315  0.60288424     0.09700
C1624       C  0.88220837  0.20824546  0.64573140    -0.07400
C1625       C  0.84215668  0.19943875  0.66400667    -0.18700
C1626       C  0.80825028  0.19243538  0.64045354     0.09700
S1627       S  0.94050681  0.21628763  0.57787571    -0.33600
S1628       S  0.75674371  0.18282380  0.66520757    -0.33600
H1629       H  0.76854792  0.18273342  0.70499925     0.27700
H1630       H  0.92761575  0.22270893  0.53950453     0.27700
H1631       H  0.86020230  0.20096933  0.54676945     0.18300
H1632       H  0.83727688  0.19976375  0.69681657     0.18300
C1633       C  0.88355963  0.07225872  0.94064669    -0.07700
C1634       C  0.84623191  0.06507885  0.92298553    -0.18600
C1635       C  0.81889058  0.09705941  0.92253497     0.09700
C1636       C  0.82890118  0.13684417  0.93985566    -0.07400
C1637       C  0.86822731  0.14852421  0.45927335    -0.18700
C1638       C  0.89763097  0.11841013  0.46062243     0.09700
S1639       S  0.77142829  0.08492071  0.90024739    -0.33600
S1640       S  0.94350540  0.13199442  0.48648036    -0.33600
H1641       H  0.94373627  0.17462310  0.48031923     0.27700
H1642       H  0.76574457  0.12498146  0.88826803     0.27700
H1643       H  0.83802185  0.03432273  0.91028548     0.18300
H1644       H  0.87386441  0.17936080  0.47307658     0.18300
C1645       C  0.57859874  0.41357363  0.55027131    -0.07500
C1646       C  0.63453321  0.43588531  0.04532444    -0.18600
C1647       C  0.66287978  0.40526409  0.04890133     0.09700
C1648       C  0.63966480  0.35478234  0.55076137    -0.07400
C1649       C  0.59916125  0.34226182  0.54194520    -0.18700
C1650       C  0.56903813  0.37166988  0.53976723     0.09700
S1651       S  0.71364800  0.42090093  0.06445389    -0.33600
S1652       S  0.52030318  0.35640629  0.51961848    -0.33600
H1653       H  0.52443427  0.31334607  0.52049222     0.27700
H1654       H  0.70906998  0.46406371  0.06579492     0.27700
H1655       H  0.64369779  0.46835329  0.05018829     0.18300
H1656       H  0.59226163  0.31006615  0.53328718     0.18300
C1657       C  0.58981866  0.43828139  0.89490391    -0.07500
C1658       C  0.62870876  0.43327829  0.90856716    -0.18600
C1659       C  0.66381455  0.42725001  0.88116130     0.09700
C1660       C  0.66030931  0.42602479  0.83872749    -0.07400
C1661       C  0.62637146  0.91580919  0.81673347    -0.18700
C1662       C  0.59136313  0.92658188  0.84345105     0.09700
S1663       S  0.71375251  0.42884442  0.90128708    -0.33600
S1664       S  0.54226642  0.93045137  0.82221173    -0.33600
H1665       H  0.55339441  0.90807144  0.78508596     0.27700
H1666       H  0.69911253  0.42230148  0.94183056     0.27700
H1667       H  0.63234715  0.43863468  0.94071387     0.18300
H1668       H  0.62387255  0.91298359  0.78427448     0.18300
C1669       C  0.88632496  0.07602702  0.58537975    -0.07500
C1670       C  0.89716457  0.08770915  0.62459246    -0.18600
C1671       C  0.86611988  0.09347215  0.65716782     0.09700
C1672       C  0.82356077  0.08834076  0.65051483    -0.07400
C1673       C  0.82629312  0.58966578  0.61512430    -0.18700
C1674       C  0.85607298  0.58657285  0.58103403     0.09700
S1675       S  0.88114639  0.10466234  0.70741711    -0.33600
S1676       S  0.84030174  0.59555682  0.53198496    -0.33600
H1677       H  0.80164750  0.61248145  0.54552429     0.27700
H1678       H  0.92378776  0.11247620  0.69641704     0.27700
H1679       H  0.92946428  0.08695070  0.63071011     0.18300
H1680       H  0.79471751  0.59737026  0.61114797     0.18300
C1681       C  0.94431742  0.41491100  0.60430474    -0.07500
C1682       C  0.95818549  0.42715556  0.64278960    -0.18600
C1683       C  0.96448994  0.39770238  0.67101251     0.09700
C1684       C  0.95762643  0.35526425  0.66005925    -0.07400
C1685       C  0.93953635  0.34385176  0.62389807    -0.18700
C1686       C  0.93329802  0.37239996  0.59578574     0.09700
S1687       S  0.98187227  0.41434317  0.71994660    -0.33600
S1688       S  0.91317353  0.35215330  0.54873503    -0.33600
H1689       H  0.91349164  0.30955104  0.55484044     0.27700
H1690       H  0.98104262  0.45724758  0.71544677     0.27700
H1691       H  0.96553464  0.45961401  0.65020802     0.18300
H1692       H  0.93137672  0.31149320  0.61687152     0.18300
C1693       C  0.53558088  0.10779920  0.90655189    -0.07500
C1694       C  0.51777132  0.14584535  0.91942865    -0.18600
C1695       C  0.50899043  0.17457723  0.89120876     0.09700
C1696       C  0.52112047  0.16641033  0.84907602    -0.07400
C1697       C  0.54341443  0.13074673  0.83723671    -0.18700
C1698       C  0.55083608  0.10170341  0.86476211     0.09700
S1699       S  0.48170977  0.22071182  0.90978835    -0.33600
S1700       S  0.08437264  0.05561238  0.84856573    -0.33600
H1701       H  0.09509214  0.06723304  0.80866856     0.27700
H1702       H  0.48252024  0.21552222  0.95148402     0.27700
H1703       H  0.50961465  0.15252075  0.95138552     0.18300
H1704       H  0.06119792  0.12503020  0.80891028     0.18300
C1705       C  0.82976739  0.90827884  0.34449811     0.85100
C1706       C  0.80422241  0.88058607  0.37467945    -0.55100
C1707       C  0.82576745  0.85661143  0.39752305     0.08000
C1708       C  0.87453039  0.86148721  0.38511741     0.19000
C1709       C  0.86141089  0.93289664  0.37028500    -0.55900
C1710       C  0.88517595  0.90980690  0.39229954     0.08100
C1711       C  0.85657118  0.87712543  0.31732841    -0.55400
C1712       C  0.88057474  0.85207491  0.33673609     0.08700
H1713       H  0.77083538  0.87791261  0.37610032     0.13200
H1714       H  0.89322175  0.84186903  0.40213258    -0.01000
H1715       H  0.86382465  0.96657022  0.37191893     0.13500
H1716       H  0.85663920  0.87525000  0.28446203     0.13300
C1717       C  0.65143078  0.58718929  0.14671144     0.85100
C1718       C  0.62453227  0.61927625  0.17401180    -0.55100
C1719       C  0.59980497  0.64336172  0.15462391     0.08000
C1720       C  0.60520634  0.63309371  0.10687556     0.19000
C1721       C  0.61895430  0.56188423  0.12188229    -0.55900
C1722       C  0.59392796  0.58460141  0.10038495     0.08100
C1723       C  0.67651095  0.61387427  0.11541805    -0.55400
C1724       C  0.65402914  0.63884574  0.09444276     0.08700
H1725       H  0.62435237  0.62223428  0.20686602     0.13200
H1726       H  0.58611923  0.65262401  0.09016856    -0.01000
H1727       H  0.61605141  0.52827113  0.12150855     0.13500
H1728       H  0.71031745  0.61450730  0.11171727     0.13300
O1729       O  0.51963031  0.95003788  0.42908676    -0.81500
O1730       O  0.96113929  0.98103603  0.07740072    -0.81500
O1731       O  0.57640435  0.98552445  0.51050573    -0.81600
O1732       O  0.91334616  0.92314494  0.45896527    -0.81500
O1733       O  0.52885317  0.96386382  0.05300516    -0.81600
O1734       O  0.93706363  0.96427089  0.41148831    -0.81500
O1735       O  0.94276843  0.93061575  0.03287008    -0.81500
O1736       O  0.57083413  0.98951138  0.44888673    -0.81600
C1737       C  0.55809974  0.95808619  0.42764869     1.08200
C1738       C  0.95143211  0.94278522  0.06871152     1.08100
C1739       C  0.55474028  0.94551282  0.02941034     1.08200
C1740       C  0.91459700  0.93221125  0.42195113     1.08100
O1741       O  0.94674369  0.53954764  0.42896748    -0.81500
O1742       O  0.53029413  0.53949479  0.09140205    -0.81600
O1743       O  0.52983697  0.56792979  0.47231016    -0.81500
O1744       O  0.90499567  0.00832002  0.03803712    -0.81500
O1745       O  0.95378153  0.05812172  0.04045016    -0.81600
O1746       O  0.02934252  0.53432215  0.41465235    -0.81500
O1747       O  0.89326704  0.50497942  0.45902485    -0.81500
O1748       O  0.56220183  0.56280107  0.03499196    -0.81600
Co1749     Co  0.98350863  0.49350296  0.42075868     1.51500
Co1750     Co  0.49646344  0.01113026  0.03717057     1.51700
Co1751     Co  0.54054639  0.51098144  0.49261439     1.51600
Co1752     Co  0.92155454  0.96608575  0.99354306     1.51500
O1753       O  0.97404937  0.98271032  0.49793077    -1.43500
C1754       C  0.90902651  0.53651114  0.44159973     1.08100
C1755       C  0.55990478  0.56221593  0.07457793     1.08200
C1756       C  0.53453156  0.56710506  0.43382724     1.08100
C1757       C  0.92028374  0.55097380  0.06183546     1.08100
O1758       O  0.80258685  0.79063109  0.43084124    -0.81500
O1759       O  0.75500202  0.73174091  0.07935782    -0.81500
O1760       O  0.79126107  0.84336080  0.00731733    -0.81600
O1761       O  0.76304174  0.64511844  0.47054552    -0.81500
O1762       O  0.76040271  0.78673598  0.02094783    -0.81600
O1763       O  0.79834166  0.69949401  0.44470234    -0.81500
O1764       O  0.78963268  0.70334710  0.02950314    -0.81500
O1765       O  0.77322081  0.84868108  0.45555697    -0.81600
C1766       C  0.80036354  0.83086812  0.43013531     1.08200
C1767       C  0.78775446  0.71523179  0.06580483     1.08100
C1768       C  0.78391456  0.81763744  0.03368091     1.08200
C1769       C  0.79344556  0.65989768  0.44825570     1.08100
O1770       O  0.71547603  0.69677914  0.41902554    -0.81500
O1771       O  0.66555569  0.77976123  0.02435452    -0.81600
O1772       O  0.69265458  0.81205251  0.46197467    -0.81500
O1773       O  0.70823455  0.65971958  0.04056273    -0.81500
O1774       O  0.67081503  0.70975704  0.07163830    -0.81600
O1775       O  0.71728037  0.77593011  0.40950397    -0.81500
O1776       O  0.68611422  0.67848140  0.47648304    -0.81500
O1777       O  0.71551753  0.83996068  0.52967498    -0.81600
Co1778     Co  0.75541972  0.74213974  0.43573820     1.51500
Co1779     Co  0.71345861  0.74988143  0.04312703     1.51700
Co1780     Co  0.74525205  0.80385105  0.48597309     1.51600
Co1781     Co  0.73506148  0.70600190  0.00665433     1.51500
O1782       O  0.72505215  0.74947683  0.50020010    -1.43500
C1783       C  0.68626865  0.67786760  0.43904490     1.08100
C1784       C  0.66917260  0.81862473  0.03264231     1.08200
C1785       C  0.68950942  0.79863673  0.42639383     1.08100
C1786       C  0.67774152  0.67060806  0.06692193     1.08100
O1787       O  0.53153426  0.78439234  0.31505691    -0.81500
O1788       O  0.97637991  0.78409680  0.16320330    -0.81500
O1789       O  0.55391298  0.78851312  0.22645257    -0.81600
O1790       O  0.89662230  0.80471707  0.27632829    -0.81500
O1791       O  0.55685781  0.76104546  0.16449364    -0.81600
O1792       O  0.94354276  0.80919126  0.32078534    -0.81500
O1793       O  0.96609014  0.81935970  0.22219338    -0.81500
O1794       O  0.58850124  0.75363667  0.28458875    -0.81600
C1795       C  0.57121639  0.77764406  0.31296804     1.08200
C1796       C  0.96904556  0.81795585  0.18361886     1.08100
C1797       C  0.56731408  0.78964600  0.18991428     1.08200
C1798       C  0.90795715  0.82006845  0.31055138     1.08100
O1799       O  0.94474223  0.72184803  0.32296676    -0.81500
O1800       O  0.53273408  0.67535533  0.16820965    -0.81600
O1801       O  0.53596411  0.68747628  0.28459944    -0.81500
O1802       O  0.90886364  0.75258659  0.20024416    -0.81500
O1803       O  0.94762570  0.70146653  0.17060152    -0.81600
O1804       O  0.00659116  0.72781464  0.33412125    -0.81500
O1805       O  0.91019206  0.71970115  0.27016839    -0.81500
O1806       O  0.58047910  0.69935674  0.20854676    -0.81600
Co1807     Co  0.98448763  0.76266735  0.29602141     1.51500
Co1808     Co  0.50238064  0.72814145  0.17071227     1.51700
Co1809     Co  0.54455852  0.73620704  0.25278973     1.51600
Co1810     Co  0.94037536  0.76915473  0.24847045     1.51500
O1811       O  0.99010188  0.73568396  0.23458847    -1.43500
C1812       C  0.91623255  0.70544420  0.30334991     1.08100
C1813       C  0.56960624  0.67436585  0.17851755     1.08200
C1814       C  0.51567134  0.69208651  0.31918056     1.08100
C1815       C  0.91410452  0.72113985  0.17496334     1.08100
O1816       O  0.79054720  0.97237701  0.33335061    -0.81500
O1817       O  0.79419763  0.53051115  0.18992459    -0.81500
O1818       O  0.77632918  0.93061065  0.20231954    -0.81600
O1819       O  0.76664186  0.58956692  0.28270590    -0.81500
O1820       O  0.76034428  0.95907992  0.14559795    -0.81600
O1821       O  0.80623537  0.53617332  0.27965056    -0.81500
O1822       O  0.76440342  0.58981279  0.19873551    -0.81500
O1823       O  0.78964548  0.92104687  0.28562481    -0.81600
C1824       C  0.80215571  0.93535812  0.32015067     1.08200
C1825       C  0.79537746  0.56856133  0.18483524     1.08100
C1826       C  0.77715096  0.93090170  0.16311326     1.08200
C1827       C  0.80071284  0.57436199  0.28897638     1.08100
O1828       O  0.72727747  0.54171481  0.33286065    -0.81500
O1829       O  0.68689826  0.95650077  0.19103608    -0.81600
O1830       O  0.70619640  0.92395082  0.28050634    -0.81500
O1831       O  0.67561743  0.56884292  0.21070404    -0.81500
O1832       O  0.70965228  0.53859995  0.15722654    -0.81600
O1833       O  0.70664390  0.97448450  0.32489783    -0.81500
O1834       O  0.68248656  0.56193984  0.29153830    -0.81500
O1835       O  0.70801706  0.91955505  0.23901847    -0.81600
Co1836     Co  0.75652607  0.49917547  0.29335643     1.51500
Co1837     Co  0.73775708  0.99222949  0.19035801     1.51700
Co1838     Co  0.75550959  0.96006598  0.25761330     1.51600
Co1839     Co  0.72261936  0.57386043  0.24582984     1.51500
O1840       O  0.72389126  0.01088745  0.24545367    -1.43500
C1841       C  0.69357110  0.55945779  0.32682692     1.08100
C1842       C  0.68365952  0.92406233  0.21053201     1.08200
C1843       C  0.69143791  0.93993353  0.31467222     1.08100
C1844       C  0.68010886  0.56241092  0.17244145     1.08100
C1845       C  0.83175098  0.60371411  0.30791896    -0.07500
C1846       C  0.81820438  0.64395768  0.32026743    -0.18600
C1847       C  0.84630295  0.67720719  0.32596964     0.09700
C1848       C  0.88902248  0.67092939  0.31798178    -0.07400
C1849       C  0.90295011  0.63008348  0.31319595    -0.18700
C1850       C  0.87426129  0.59602963  0.31051954     0.09700
S1851       S  0.82596527  0.72793124  0.33929322    -0.33600
S1852       S  0.89362289  0.54456310  0.31007796    -0.33600
H1853       H  0.85750080  0.52822121  0.33129291     0.27700
H1854       H  0.86172396  0.74470581  0.35652991     0.27700
H1855       H  0.78539916  0.65047225  0.32310712     0.18300
H1856       H  0.93604174  0.62482286  0.30936198     0.18300
C1857       C  0.59881566  0.82227462  0.18008247    -0.07500
C1858       C  0.58596943  0.86319338  0.17934344    -0.18600
C1859       C  0.61303026  0.89740191  0.18814806     0.09700
C1860       C  0.65320525  0.89030502  0.19934859    -0.07400
C1861       C  0.66589291  0.84937679  0.19826297    -0.18700
C1862       C  0.63984434  0.81559645  0.18777679     0.09700
S1863       S  0.59409823  0.94928561  0.18979241    -0.33600
S1864       S  0.65841128  0.76410544  0.19113434    -0.33600
H1865       H  0.63677326  0.74622283  0.15897431     0.27700
H1866       H  0.55711992  0.93845646  0.17165882     0.27700
H1867       H  0.55380187  0.86821084  0.17505534     0.18300
H1868       H  0.69519433  0.84299770  0.20904015     0.18300
C1869       C  0.79239736  0.89440694  0.13878612    -0.07500
C1870       C  0.76815255  0.85822430  0.14296066    -0.18600
C1871       C  0.76442300  0.82979379  0.10995730     0.09700
C1872       C  0.79335773  0.83222063  0.07536515    -0.07400
C1873       C  0.82539258  0.86365149  0.07657082    -0.18700
C1874       C  0.82229651  0.89700916  0.10587503     0.09700
S1875       S  0.71547216  0.80186129  0.11029186    -0.33600
S1876       S  0.85226543  0.94459922  0.09886036    -0.33600
H1877       H  0.86113162  0.93698720  0.05669968     0.27700
H1878       H  0.69251008  0.83810641  0.11698395     0.27700
H1879       H  0.74611601  0.85673440  0.16876865     0.18300
H1880       H  0.84783978  0.86656180  0.05045676     0.18300
C1881       C  0.65891748  0.64858925  0.41787158    -0.07500
C1882       C  0.65830455  0.60765643  0.42956680    -0.18600
C1883       C  0.66460028  0.57528853  0.39986717     0.09700
C1884       C  0.67020250  0.58473572  0.35889062    -0.07400
C1885       C  0.65826802  0.62351308  0.34823650    -0.18700
C1886       C  0.65208770  0.65566760  0.37783825     0.09700
S1887       S  0.66849571  0.52389642  0.41569094    -0.33600
S1888       S  0.64418845  0.70713445  0.36344243    -0.33600
H1889       H  0.64183061  0.69702464  0.32172688     0.27700
H1890       H  0.65632200  0.50512807  0.37894696     0.27700
H1891       H  0.66041975  0.60157537  0.46106829     0.18300
H1892       H  0.65893222  0.63024629  0.31661291     0.18300
C1893       C  0.65484987  0.80837751  0.40338453    -0.07500
C1894       C  0.66567616  0.81899835  0.36373568    -0.18600
C1895       C  0.63743392  0.81270684  0.33454608     0.09700
C1896       C  0.59696469  0.79657464  0.34483734    -0.07400
C1897       C  0.58401356  0.79230184  0.38607366    -0.18700
C1898       C  0.61295647  0.79729692  0.41555304     0.09700
S1899       S  0.65443096  0.82324569  0.28371560    -0.33600
S1900       S  0.59786362  0.78299498  0.46655715    -0.33600
H1901       H  0.55474688  0.78019209  0.46309508     0.27700
H1902       H  0.69500691  0.83829967  0.28992456     0.27700
H1903       H  0.69763666  0.82859836  0.35490396     0.18300
H1904       H  0.55270260  0.78088964  0.39444201     0.18300
C1905       C  0.82155921  0.71112730  0.09171713    -0.07500
C1906       C  0.81128616  0.69961616  0.13165474    -0.18600
C1907       C  0.84161626  0.69970545  0.15905428     0.09700
C1908       C  0.88297994  0.71128075  0.14618484    -0.07400
C1909       C  0.89362582  0.72115871  0.10587616    -0.18700
C1910       C  0.86309642  0.72226825  0.07876802     0.09700
S1911       S  0.82578359  0.68610798  0.21026129    -0.33600
S1912       S  0.87632916  0.74453087  0.03055859    -0.33600
H1913       H  0.91956899  0.74057344  0.02990772     0.27700
H1914       H  0.86392549  0.66953155  0.21692166     0.27700
H1915       H  0.77927690  0.69134178  0.14178724     0.18300
H1916       H  0.92528422  0.73150141  0.09672566     0.18300
C1917       C  0.88277391  0.57015749  0.43485167    -0.07700
C1918       C  0.84435804  0.56021435  0.42022380    -0.18600
C1919       C  0.81572202  0.59072799  0.41956884     0.09700
C1920       C  0.82603242  0.63190575  0.43265241    -0.07400
C1921       C  0.87144347  0.65328577  0.95732193    -0.18700
C1922       C  0.90037044  0.62309754  0.96053341     0.09700
S1923       S  0.76513887  0.57461639  0.40583721    -0.33600
S1924       S  0.94615352  0.63737989  0.98645547    -0.33600
H1925       H  0.94470466  0.68040285  0.98307997     0.27700
H1926       H  0.75590796  0.61302468  0.39191100     0.27700
H1927       H  0.83574280  0.52824129  0.41161070     0.18300
H1928       H  0.87799324  0.68485077  0.96815485     0.18300
C1929       C  0.57979137  0.91259081  0.04123493    -0.07500
C1930       C  0.57833640  0.88973970  0.55588001    -0.18600
C1931       C  0.60482076  0.85709133  0.55884979     0.09700
C1932       C  0.63517880  0.84834408  0.04278382    -0.07400
C1933       C  0.64849468  0.89039965  0.04783580    -0.18700
C1934       C  0.62171847  0.92222774  0.04615409     0.09700
S1935       S  0.58164350  0.80679735  0.57007725    -0.33600
S1936       S  0.64276902  0.97500009  0.04594985    -0.33600
H1937       H  0.68035571  0.96786423  0.06215700     0.27700
H1938       H  0.54085137  0.81970713  0.58119042     0.27700
H1939       H  0.54491756  0.88406544  0.55930133     0.18300
H1940       H  0.68099902  0.89906734  0.04986950     0.18300
C1941       C  0.58798474  0.93469446  0.39937465    -0.07500
C1942       C  0.62715400  0.92986814  0.41232730    -0.18600
C1943       C  0.66174292  0.92431210  0.38427814     0.09700
C1944       C  0.65712286  0.92284867  0.34205684    -0.07400
C1945       C  0.62321079  0.41032457  0.32017235    -0.18700
C1946       C  0.58804912  0.41792865  0.34791682     0.09700
S1947       S  0.71222529  0.92659920  0.40329100    -0.33600
S1948       S  0.53751557  0.41641220  0.32859251    -0.33600
H1949       H  0.54947266  0.39539534  0.29093251     0.27700
H1950       H  0.69873500  0.92278566  0.44458127     0.27700
H1951       H  0.63136528  0.93528016  0.44435383     0.18300
H1952       H  0.61978091  0.40684700  0.28789651     0.18300
C1953       C  0.89410511  0.57701831  0.09217822    -0.07500
C1954       C  0.90398800  0.57743159  0.13240257    -0.18600
C1955       C  0.87251164  0.57943762  0.16477847     0.09700
C1956       C  0.83069178  0.58478512  0.15746326    -0.07400
C1957       C  0.81147659  0.06657681  0.10473413    -0.18700
C1958       C  0.84173720  0.06297043  0.07143119     0.09700
S1959       S  0.88535451  0.56899214  0.21432799    -0.33600
S1960       S  0.82464272  0.04660772  0.02244938    -0.33600
H1961       H  0.78233226  0.05506066  0.03195320     0.27700
H1962       H  0.92885367  0.57349815  0.20653654     0.27700
H1963       H  0.93504623  0.56941599  0.13808017     0.18300
H1964       H  0.77922311  0.05838969  0.10045755     0.18300
C1965       C  0.95255943  0.91173183  0.10005929    -0.07500
C1966       C  0.96405621  0.92449742  0.13938274    -0.18600
C1967       C  0.96795514  0.89567505  0.16887594     0.09700
C1968       C  0.95986510  0.85303851  0.15917900    -0.07400
C1969       C  0.94596247  0.84117592  0.12096256    -0.18700
C1970       C  0.94414874  0.86891903  0.09105236     0.09700
S1971       S  0.98524937  0.91477182  0.21699642    -0.33600
S1972       S  0.93329570  0.84677305  0.04131482    -0.33600
H1973       H  0.95135799  0.80853766  0.04480476     0.27700
H1974       H  0.95276903  0.89416880  0.23991628     0.27700
H1975       H  0.97102075  0.95701875  0.14702134     0.18300
H1976       H  0.93779196  0.80892282  0.11337221     0.18300
C1977       C  0.53797055  0.60287802  0.40678242    -0.07500
C1978       C  0.52408537  0.64227236  0.42078290    -0.18600
C1979       C  0.51431611  0.67147260  0.39344178     0.09700
C1980       C  0.52198828  0.66249201  0.35084623    -0.07400
C1981       C  0.54050763  0.62507909  0.33735762    -0.18700
C1982       C  0.54856081  0.59547339  0.36410231     0.09700
S1983       S  0.49119999  0.71921102  0.41373094    -0.33600
S1984       S  0.08104542  0.55096622  0.34593573    -0.33600
H1985       H  0.08844079  0.56140236  0.30529833     0.27700
H1986       H  0.49949896  0.71594493  0.45428513     0.27700
H1987       H  0.51927104  0.64952464  0.45311355     0.18300
H1988       H  0.06130832  0.62318255  0.30806081     0.18300
C1989       C  0.84069938  0.90532950  0.83054580     0.85100
C1990       C  0.81435706  0.87560466  0.85732736    -0.55100
C1991       C  0.83533620  0.85030792  0.87932470     0.08000
C1992       C  0.88392426  0.85621182  0.87049405     0.19000
C1993       C  0.86994213  0.92837038  0.85963336    -0.55900
C1994       C  0.89258759  0.90406195  0.88167414     0.08100
C1995       C  0.86935503  0.87600603  0.80279755    -0.55400
C1996       C  0.89226340  0.84962462  0.82215482     0.08700
H1997       H  0.78082376  0.87418533  0.85828991     0.13200
H1998       H  0.90165194  0.83555059  0.88736327    -0.01000
H1999       H  0.87173954  0.96203894  0.86323354     0.13500
H2000       H  0.87056540  0.87546809  0.76989174     0.13300
C2001       C  0.65744554  0.58468215  0.64327266     0.85100
C2002       C  0.62803322  0.61550648  0.66829618    -0.55100
C2003       C  0.60468027  0.63808832  0.64643097     0.08000
C2004       C  0.61187309  0.62703834  0.59957531     0.19000
C2005       C  0.62837668  0.55717120  0.61640078    -0.55900
C2006       C  0.60426256  0.57829640  0.59267726     0.08100
C2007       C  0.68282746  0.61236776  0.61280458    -0.55400
C2008       C  0.65975959  0.63562212  0.59032761     0.08700
H2009       H  0.62646797  0.62025118  0.70116951     0.13200
H2010       H  0.59287646  0.64529607  0.58151582    -0.01000
H2011       H  0.62700630  0.52358249  0.61642278     0.13500
H2012       H  0.71657425  0.61525783  0.61107319     0.13300
O2013       O  0.52645630  0.95209407  0.90740575    -0.81500
O2014       O  0.95284055  0.97686168  0.58709319    -0.81500
O2015       O  0.56263639  0.96044753  0.99643233    -0.81600
O2016       O  0.92302308  0.91811584  0.94879112    -0.81500
O2017       O  0.52954257  0.96221169  0.55501350    -0.81600
O2018       O  0.94078882  0.95868320  0.89991610    -0.81500
O2019       O  0.92369372  0.93182008  0.54343415    -0.81500
O2020       O  0.57520476  0.98925571  0.93967117    -0.81600
C2021       C  0.56446637  0.96041363  0.91265940     1.08200
C2022       C  0.93763198  0.94090483  0.57760655     1.08100
C2023       C  0.56562586  0.96044692  0.53709908     1.08200
C2024       C  0.92146424  0.92630012  0.91172477     1.08100
O2025       O  0.95355177  0.55064749  0.95615312    -0.81500
O2026       O  0.53416367  0.54961406  0.57795814    -0.81600
O2027       O  0.53776494  0.56442194  0.94622155    -0.81500
O2028       O  0.89789281  0.01352202  0.54737608    -0.81500
O2029       O  0.95375665  0.05479822  0.55301141    -0.81600
O2030       O  0.00943055  0.52879331  0.89492285    -0.81500
O2031       O  0.89629238  0.51330376  0.96773781    -0.81500
O2032       O  0.58515774  0.53998635  0.52774328    -0.81600
Co2033     Co  0.98699838  0.50167122  0.94172968     1.51500
Co2034     Co  0.49385518  0.01038649  0.55190433     1.51700
Co2035     Co  0.53623708  0.52207561  0.98932149     1.51600
Co2036     Co  0.91105112  0.96989291  0.50371158     1.51500
O2037       O  0.98218542  0.98783393  0.98115398    -1.43500
C2038       C  0.91466064  0.54701097  0.95801142     1.08100
C2039       C  0.57313996  0.55544612  0.56458950     1.08200
C2040       C  0.53021550  0.56012700  0.90844712     1.08100
C2041       C  0.92101081  0.54978948  0.55049329     1.08100
O2042       O  0.81728234  0.78847267  0.91815036    -0.81500
O2043       O  0.75466108  0.71745213  0.57984131    -0.81500
O2044       O  0.79458633  0.80054945  0.51643275    -0.81600
O2045       O  0.76399775  0.66452727  0.96627642    -0.81500
O2046       O  0.75349869  0.79902143  0.57350470    -0.81600
O2047       O  0.80983386  0.70996959  0.94149821    -0.81500
O2048       O  0.79195835  0.70658708  0.52207560    -0.81500
O2049       O  0.77633751  0.84002867  0.92700920    -0.81600
C2050       C  0.80974242  0.82503196  0.91059769     1.08200
C2051       C  0.78930168  0.70942216  0.56029015     1.08100
C2052       C  0.78805623  0.80904698  0.55434637     1.08200
C2053       C  0.80010720  0.67328620  0.94960152     1.08100
O2054       O  0.72353149  0.70185695  0.92032682    -0.81500
O2055       O  0.66877238  0.79375243  0.55408427    -0.81600
O2056       O  0.69248943  0.81548905  0.94957136    -0.81500
O2057       O  0.71539987  0.66045126  0.54344329    -0.81500
O2058       O  0.66804267  0.70530766  0.56360221    -0.81600
O2059       O  0.72904654  0.78104564  0.89979441    -0.81500
O2060       O  0.68408835  0.70309745  0.97846402    -0.81500
O2061       O  0.70531922  0.83436760  0.03051770    -0.81600
Co2062     Co  0.76865158  0.74639606  0.92502127     1.51500
Co2063     Co  0.71134875  0.75369619  0.56306298     1.51700
Co2064     Co  0.74184698  0.82823866  0.97898129     1.51600
Co2065     Co  0.73969920  0.69322117  0.49638391     1.51500
O2066       O  0.75174164  0.76356446  0.98591699    -1.43500
C2067       C  0.69016303  0.69122452  0.94136472     1.08100
C2068       C  0.67895811  0.83090025  0.54567336     1.08200
C2069       C  0.69682845  0.80072508  0.91339061     1.08100
C2070       C  0.68103786  0.66846001  0.56379818     1.08100
O2071       O  0.54352294  0.78290636  0.79808835    -0.81500
O2072       O  0.98444124  0.78089564  0.65182524    -0.81500
O2073       O  0.56294822  0.78772270  0.71283381    -0.81600
O2074       O  0.90494974  0.79806521  0.76464740    -0.81500
O2075       O  0.56888788  0.75949506  0.65176144    -0.81600
O2076       O  0.95526215  0.80721508  0.80508235    -0.81500
O2077       O  0.97441342  0.81241132  0.71279714    -0.81500
O2078       O  0.60036998  0.75200739  0.76743782    -0.81600
C2079       C  0.58351510  0.77711173  0.79486549     1.08200
C2080       C  0.97551539  0.81273582  0.67472787     1.08100
C2081       C  0.57863820  0.78852457  0.67709018     1.08200
C2082       C  0.91848217  0.81642487  0.79660602     1.08100
O2083       O  0.95571217  0.72114715  0.81095187    -0.81500
O2084       O  0.54152022  0.67419339  0.65493620    -0.81600
O2085       O  0.54937756  0.68553646  0.76751873    -0.81500
O2086       O  0.91639661  0.74734781  0.68864856    -0.81500
O2087       O  0.95579037  0.69824587  0.65630184    -0.81600
O2088       O  0.02038793  0.72545901  0.81693353    -0.81500
O2089       O  0.92025695  0.71312028  0.75855490    -0.81500
O2090       O  0.59009111  0.69825662  0.69436733    -0.81600
Co2091     Co  0.99525861  0.75990872  0.78028084     1.51500
Co2092     Co  0.51326075  0.72719990  0.65802646     1.51700
Co2093     Co  0.55547047  0.73472311  0.73817726     1.51600
Co2094     Co  0.94871311  0.76259149  0.73663870     1.51500
O2095       O  0.99850209  0.73073119  0.72012088    -1.43500
C2096       C  0.92704969  0.70235861  0.79292241     1.08100
C2097       C  0.57742412  0.67184968  0.66657454     1.08200
C2098       C  0.52890371  0.68874321  0.80168046     1.08100
C2099       C  0.92172820  0.71677988  0.66238619     1.08100
O2100       O  0.79945787  0.96924602  0.82447207    -0.81500
O2101       O  0.79657336  0.52811346  0.69213788    -0.81500
O2102       O  0.78823728  0.94089220  0.69143501    -0.81600
O2103       O  0.77295833  0.59399227  0.77960088    -0.81500
O2104       O  0.76756090  0.97083567  0.63782826    -0.81600
O2105       O  0.80945459  0.53861102  0.77840082    -0.81500
O2106       O  0.76925914  0.58824748  0.69514266    -0.81500
O2107       O  0.80051383  0.92145774  0.77302891    -0.81600
C2108       C  0.81282657  0.93377725  0.80815198     1.08200
C2109       C  0.79917686  0.56491421  0.68262047     1.08100
C2110       C  0.78911783  0.94424642  0.65242243     1.08200
C2111       C  0.80630093  0.57734674  0.78565237     1.08100
O2112       O  0.73289175  0.55029767  0.83419429    -0.81500
O2113       O  0.69550024  0.95754529  0.68263732    -0.81600
O2114       O  0.71567100  0.92091935  0.76951005    -0.81500
O2115       O  0.68011571  0.57181361  0.70982684    -0.81500
O2116       O  0.71359924  0.53738761  0.65843925    -0.81600
O2117       O  0.71548807  0.96806003  0.81752607    -0.81500
O2118       O  0.68830265  0.57337307  0.79382598    -0.81500
O2119       O  0.71938299  0.91807229  0.72708056    -0.81600
Co2120     Co  0.75880995  0.50482391  0.79615114     1.51500
Co2121     Co  0.74298928  0.99694164  0.68593630     1.51700
Co2122     Co  0.76331808  0.96069124  0.74933888     1.51600
Co2123     Co  0.72760243  0.57811276  0.74475306     1.51500
O2124       O  0.72816538  0.01019986  0.74191661    -1.43500
C2125       C  0.69950711  0.56906372  0.82917310     1.08100
C2126       C  0.69488072  0.92329757  0.69893574     1.08200
C2127       C  0.70078717  0.93424150  0.80468432     1.08100
C2128       C  0.68482818  0.56246600  0.67176421     1.08100
C2129       C  0.83930538  0.60556978  0.80233318    -0.07500
C2130       C  0.82785086  0.64643652  0.81473094    -0.18600
C2131       C  0.85751199  0.67828846  0.81968196     0.09700
C2132       C  0.89971424  0.66988045  0.81090990    -0.07400
C2133       C  0.91167335  0.62838890  0.80595794    -0.18700
C2134       C  0.88136925  0.59565987  0.80366639     0.09700
S2135       S  0.83968865  0.73022468  0.83151570    -0.33600
S2136       S  0.89660931  0.54258431  0.80334157    -0.33600
H2137       H  0.93861946  0.55181824  0.80955394     0.27700
H2138       H  0.87652844  0.74597679  0.84739969     0.27700
H2139       H  0.79544485  0.65452736  0.81821917     0.18300
H2140       H  0.94444498  0.62187687  0.80101249     0.18300
C2141       C  0.60916703  0.82276132  0.66785833    -0.07500
C2142       C  0.59517214  0.86330453  0.67522780    -0.18600
C2143       C  0.62271367  0.89688651  0.68370818     0.09700
C2144       C  0.66522575  0.88968961  0.68596195    -0.07400
C2145       C  0.67995354  0.84994011  0.67427124    -0.18700
C2146       C  0.65227466  0.81636033  0.66515062     0.09700
S2147       S  0.60229833  0.94789755  0.69535610    -0.33600
S2148       S  0.67142086  0.76466788  0.65513090    -0.33600
H2149       H  0.71390376  0.77588462  0.65603755     0.27700
H2150       H  0.56464519  0.93937946  0.67769851     0.27700
H2151       H  0.56206265  0.86811805  0.67746562     0.18300
H2152       H  0.71289645  0.84487128  0.67414852     0.18300
C2153       C  0.81166888  0.91288560  0.62522273    -0.07500
C2154       C  0.81791882  0.87506784  0.64170319    -0.18600
C2155       C  0.81747793  0.83824671  0.61729363     0.09700
C2156       C  0.81449353  0.83988534  0.57522871    -0.07400
C2157       C  0.81987508  0.87829195  0.55788456    -0.18700
C2158       C  0.81720084  0.91501639  0.58259193     0.09700
S2159       S  0.81211420  0.78978601  0.64132464    -0.33600
S2160       S  0.81562407  0.96256117  0.55785867    -0.33600
H2161       H  0.83072099  0.98749197  0.59018436     0.27700
H2162       H  0.81607981  0.80562352  0.68144621     0.27700
H2163       H  0.81624700  0.87334102  0.67432393     0.18300
H2164       H  0.81899961  0.87986369  0.52539433     0.18300
C2165       C  0.66504053  0.65681073  0.92363277    -0.07500
C2166       C  0.67321753  0.61698700  0.93470218    -0.18600
C2167       C  0.67830677  0.58404077  0.90482773     0.09700
C2168       C  0.67612407  0.59209674  0.86377525    -0.07400
C2169       C  0.65721753  0.62839767  0.85532601    -0.18700
C2170       C  0.65142056  0.66068171  0.88517801     0.09700
S2171       S  0.68960585  0.53316053  0.91889229    -0.33600
S2172       S  0.63276796  0.70892595  0.87235092    -0.33600
H2173       H  0.62190657  0.69562266  0.83329785     0.27700
H2174       H  0.68691722  0.54275067  0.96111070     0.27700
H2175       H  0.68157541  0.61314329  0.96508533     0.18300
H2176       H  0.65170134  0.63374211  0.82442197     0.18300
C2177       C  0.66568184  0.80772160  0.88498556    -0.07500
C2178       C  0.68023380  0.81025817  0.84409472    -0.18600
C2179       C  0.65302776  0.80584035  0.81396197     0.09700
C2180       C  0.61017020  0.79808894  0.82446840    -0.07400
C2181       C  0.59477553  0.80249491  0.86545971    -0.18700
C2182       C  0.62223988  0.80691023  0.89606823     0.09700
S2183       S  0.67518340  0.80901001  0.76257658    -0.33600
S2184       S  0.60142485  0.80366544  0.94804593    -0.33600
H2185       H  0.55922728  0.80661251  0.94172027     0.27700
H2186       H  0.63931679  0.82584400  0.75033649     0.27700
H2187       H  0.71336241  0.81360765  0.83531378     0.18300
H2188       H  0.56176858  0.79757240  0.87358274     0.18300
C2189       C  0.82552957  0.70334741  0.58297066    -0.07500
C2190       C  0.81794124  0.69003455  0.62271275    -0.18600
C2191       C  0.84947889  0.69221836  0.64909177     0.09700
C2192       C  0.88958730  0.70613878  0.63483680    -0.07400
C2193       C  0.89826021  0.71566647  0.59423097    -0.18700
C2194       C  0.86652380  0.71533497  0.56825063     0.09700
S2195       S  0.83826164  0.67905080  0.70122569    -0.33600
S2196       S  0.87816915  0.73574258  0.51884882    -0.33600
H2197       H  0.92177768  0.73620774  0.51836345     0.27700
H2198       H  0.79516435  0.67177627  0.69980943     0.27700
H2199       H  0.78668963  0.68023141  0.63384593     0.18300
H2200       H  0.92935063  0.72677752  0.58394808     0.18300
C2201       C  0.89027523  0.58146211  0.94819950    -0.07700
C2202       C  0.85358838  0.57185132  0.92953015    -0.18600
C2203       C  0.82475231  0.60223713  0.92707641     0.09700
C2204       C  0.83243395  0.64243512  0.94376648    -0.07400
C2205       C  0.86638990  0.64276585  0.44201741    -0.18700
C2206       C  0.89421464  0.61179440  0.44564336     0.09700
S2207       S  0.77935545  0.59047126  0.90101910    -0.33600
S2208       S  0.93843003  0.62425535  0.47396404    -0.33600
H2209       H  0.93426048  0.66740703  0.47812160     0.27700
H2210       H  0.78737680  0.54850315  0.89050186     0.27700
H2211       H  0.84693931  0.54023273  0.91828240     0.18300
H2212       H  0.87377867  0.67437343  0.45250356     0.18300
C2213       C  0.59437006  0.92913299  0.54599176    -0.07500
C2214       C  0.56440963  0.87123330  0.04286833    -0.18600
C2215       C  0.59198564  0.83868598  0.04455814     0.09700
C2216       C  0.64846967  0.86427603  0.55143659    -0.07400
C2217       C  0.66407576  0.90487373  0.54521191    -0.18700
C2218       C  0.63771166  0.93723597  0.54233781     0.09700
S2219       S  0.57206053  0.78600414  0.04889200    -0.33600
S2220       S  0.66008120  0.98882309  0.53492590    -0.33600
H2221       H  0.70192640  0.97786101  0.52765613     0.27700
H2222       H  0.52969660  0.79550264  0.05413036     0.27700
H2223       H  0.53156783  0.86437428  0.04071091     0.18300
H2224       H  0.69734101  0.91126750  0.54149090     0.18300
C2225       C  0.59640798  0.93800077  0.88510955    -0.07500
C2226       C  0.63417443  0.93061681  0.89992281    -0.18600
C2227       C  0.66877924  0.91963642  0.87335880     0.09700
C2228       C  0.66586583  0.91629420  0.83074399    -0.07400
C2229       C  0.62034343  0.42456845  0.82522909    -0.18700
C2230       C  0.58479390  0.43002208  0.85307485     0.09700
S2231       S  0.71828108  0.91822939  0.89399669    -0.33600
S2232       S  0.53426138  0.43156207  0.83429835    -0.33600
H2233       H  0.54675230  0.41750986  0.79402011     0.27700
H2234       H  0.70260098  0.91536886  0.93486383     0.27700
H2235       H  0.63753044  0.93694931  0.93201201     0.18300
H2236       H  0.61737537  0.42397296  0.79291456     0.18300
C2237       C  0.89654633  0.57290721  0.58486936    -0.07500
C2238       C  0.90663308  0.56559699  0.62394971    -0.18600
C2239       C  0.87606633  0.56558196  0.65729343     0.09700
C2240       C  0.83492708  0.57703586  0.65297356    -0.07400
C2241       C  0.81320639  0.08467360  0.61044894    -0.18700
C2242       C  0.84388517  0.07837206  0.57793567     0.09700
S2243       S  0.88883250  0.54601396  0.70392145    -0.33600
S2244       S  0.82698425  0.06715187  0.52809056    -0.33600
H2245       H  0.78699654  0.08309446  0.53645753     0.27700
H2246       H  0.92941874  0.53394653  0.69048928     0.27700
H2247       H  0.93713300  0.55431222  0.62722158     0.18300
H2248       H  0.78067141  0.08108647  0.60495386     0.18300
C2249       C  0.93950814  0.90819851  0.60563328    -0.07500
C2250       C  0.95185382  0.91916880  0.64483090    -0.18600
C2251       C  0.96300769  0.88891735  0.66958454     0.09700
C2252       C  0.96031905  0.84718065  0.65494641    -0.07400
C2253       C  0.94347698  0.83637143  0.61803250    -0.18700
C2254       C  0.93498182  0.86588044  0.59233425     0.09700
S2255       S  0.98223942  0.90403544  0.71814582    -0.33600
S2256       S  0.92219266  0.84708162  0.54196449    -0.33600
H2257       H  0.94285086  0.80949961  0.54045682     0.27700
H2258       H  0.98009259  0.94715808  0.71580035     0.27700
H2259       H  0.95489301  0.95154827  0.65521242     0.18300
H2260       H  0.93862598  0.80407528  0.60798489     0.18300
C2261       C  0.54046457  0.59430749  0.88253189    -0.07500
C2262       C  0.53126012  0.63432128  0.89865912    -0.18600
C2263       C  0.52748767  0.66622095  0.87316270     0.09700
C2264       C  0.53423480  0.65767297  0.83074775    -0.07400
C2265       C  0.54877399  0.61880394  0.81525663    -0.18700
C2266       C  0.55222036  0.58703534  0.84089517     0.09700
S2267       S  0.51419038  0.71708253  0.89547124    -0.33600
S2268       S  0.07600164  0.53914479  0.82262293    -0.33600
H2269       H  0.09236006  0.55225469  0.78452627     0.27700
H2270       H  0.51999993  0.70955627  0.93584325     0.27700
H2271       H  0.52449756  0.63991404  0.93109069     0.18300
H2272       H  0.06537593  0.61602552  0.78524401     0.18300
loop_ 
_geom_bond_atom_site_label_1 
_geom_bond_atom_site_label_2 
_geom_bond_distance 
_geom_bond_site_symmetry_2 
_ccdc_geom_bond_type 
C1            C2   1.546       .  S
C1            C7   1.547       .  S
C1            C5   1.547       .  S
C1          C120   1.597       .  S
C2            H9   1.074       .  S
C2            C3   1.376       .  D
C3            C4   1.595       .  S
C3           C62   1.559       .  S
C4            C8   1.613       .  S
C4            C6   1.585       .  S
C4           H10   1.110       .  S
C5           H11   1.086       .  S
C5            C6   1.384       .  D
C6           C36   1.550       .  S
C7           H12   1.086       .  S
C7            C8   1.379       .  D
C8           C94   1.568       .  S
C13          C14   1.561       .  S
C13          C19   1.545       .  S
C13          C17   1.557       .  S
C13         C140   1.599       .  S
C14          H21   1.086       .  S
C14          C15   1.375       .  D
C15          C16   1.587       .  S
C15         C109   1.550       .  S
C16          C20   1.575       .  S
C16          C18   1.594       .  S
C16          H22   1.110       .  S
C17          H23   1.082       .  S
C17          C18   1.387       .  D
C18          C51   1.566       .  S
C19          H24   1.087       .  S
C19          C20   1.380       .  D
C20          C82   1.533       .  S
O25          C33   1.268       .  A
O25       Co1749   1.942   1_455  S
O26          C34   1.275       .  A
O26       Co1182   1.988       .  S
O27         C319   1.221       .  A
O27        Co615   1.943       .  S
O28          C36   1.277       .  A
O28        Co332   2.060       .  S
O29          C35   1.259       .  A
O29         Co46   1.993   1_455  S
O30          C36   1.265       .  A
O30        Co613   2.023       .  S
O31          C34   1.273       .  A
O31         Co48   1.965       .  S
O32          C33   1.305       .  A
O32        Co615   2.085       .  S
C33         C237   1.480       .  S
C34         C261   1.475       .  S
C35         O311   1.253       .  A
C35         C225   1.467       .  S
O37          C50   1.252       .  A
O37         Co45   1.958   1_545  S
O38          C51   1.303       .  A
O38        Co614   2.037   1_455  S
O39          C52   1.296       .  A
O39         Co47   2.035       .  S
O40         C621   1.269       .  A
O40         Co48   1.996       .  S
O41         C621   1.277       .  A
O41       Co1182   2.008       .  S
O42        C1188   1.274       .  A
O42         Co45   1.901   1_545  S
O43          C50   1.266       .  A
O43        Co900   1.988   1_545  S
O44          C51   1.317       .  A
O44        Co331   2.089   1_554  S
Co45       O1729   1.963       .  S
Co45        O598   2.057       .  S
Co45        O617   1.919       .  S
Co46       O1162   1.988       .  S
Co46        O606   1.995   1_655  S
Co46       O1177   2.007       .  S
Co46       O1469   1.981   1_554  S
Co47        O595   1.956   1_545  S
Co47        O600   2.000   1_545  S
Co47        O328   2.149       .  S
Co47       O1753   2.136   1_445  S
Co48        O312   2.053   1_554  S
Co48        O895   1.990   1_554  S
Co48        O333   2.050   1_554  S
O49        Co613   2.074       .  S
O49       Co1466   2.139       .  S
O49       Co1751   2.049       .  S
O49        Co332   2.064       .  S
C50         C213   1.458       .  S
C52        O1178   1.276       .  A
C52         C273   1.451       .  S
C53         O608   1.264       .  A
C53         O609   1.276       .  A
C53         C249   1.499       .  S
O54          C62   1.305       .  A
O54         Co74   2.140       .  S
O55          C63   1.248       .  A
O55         Co75   1.977       .  S
O56          C64   1.267       .  A
O56        Co360   1.961   1_554  S
O57          C65   1.255       .  A
O57        Co361   1.945       .  S
O58          C64   1.282       .  A
O58         Co75   2.022       .  S
O59          C65   1.264       .  A
O59         Co74   1.984       .  S
O60          C63   1.244       .  A
O60         Co77   1.971       .  S
O61          C62   1.284       .  A
O61         Co76   1.964       .  S
C63         C201   1.471       .  S
C64         C168   1.464       .  S
C65         C216   1.455       .  S
O66          C79   1.276       .  A
O66         Co74   2.016       .  S
O67          C80   1.272       .  A
O67         Co75   1.998       .  S
O68          C81   1.246       .  A
O68         Co76   1.992       .  S
O69          C82   1.277       .  A
O69         Co77   1.917       .  S
O70          C82   1.319       .  A
O70         Co75   2.153       .  S
O71          C81   1.245       .  A
O71         Co74   1.958       .  S
O72          C79   1.249       .  A
O72        Co361   1.939       .  S
O73         C364   1.283       .  A
O73         Co76   2.009       .  S
Co74         O78   2.205       .  S
Co75        O362   2.161   1_554  S
Co76        O340   1.971       .  S
Co76         O78   1.957       .  S
Co77        O341   1.988   1_554  S
Co77        O356   1.956   1_554  S
Co77        O362   1.913   1_554  S
O78        Co359   2.134       .  S
O78        Co361   1.975       .  S
C79         C177   1.453       .  S
C80         O357   1.268       .  A
C80         C228   1.484       .  S
C81         C189   1.472       .  S
O83          C91   1.298       .  A
O83       Co1239   2.063   1_455  S
O84          C92   1.265       .  A
O84       Co1240   1.955       .  S
O85          C93   1.250       .  A
O85        Co105   1.961       .  S
O86          C94   1.286       .  A
O86        Co106   1.992       .  S
O87          C93   1.264       .  A
O87        Co104   2.029       .  S
O88          C94   1.302       .  A
O88        Co103   2.132       .  S
O89          C92   1.265       .  A
O89        Co106   1.974       .  S
O90          C91   1.280       .  A
O90        Co105   1.908       .  S
C91         C192   1.474       .  S
C92         C264   1.468       .  S
C93         C153   1.475       .  S
O95         C108   1.256       .  A
O95        Co103   1.995       .  S
O96         C109   1.271       .  A
O96        Co104   2.010       .  S
O97         C110   1.261       .  A
O97        Co105   1.960       .  S
O98         C111   1.279       .  A
O98        Co106   2.004       .  S
O99         C111   1.269       .  A
O99       Co1240   1.972       .  S
O100       C1246   1.260       .  A
O100       Co103   1.961       .  S
O101        C108   1.254       .  A
O101       Co106   1.963       .  S
O102        C109   1.295       .  A
O102       Co105   2.096       .  S
Co103      O1219   2.056       .  S
Co103       O107   2.148       .  S
Co104      O1220   1.962   1_455  S
Co104      O1235   1.977   1_455  S
Co104      O1243   2.065   1_455  S
Co105      O1243   1.909   1_455  S
Co106       O107   1.971       .  S
O107      Co1240   2.060       .  S
O107      Co1241   1.908       .  S
C108        C144   1.459       .  S
C110       O1236   1.260       .  A
C110        C276   1.462       .  S
C111        C204   1.466       .  S
O112        C120   1.308       .  A
O112       Co700   2.063       .  S
O113        C121   1.259       .  A
O113       Co701   1.983   1_545  S
O114        C122   1.308       .  A
O114       Co134   2.104       .  S
O115        C123   1.270       .  A
O115       Co135   1.995       .  S
O116        C122   1.273       .  A
O116       Co133   1.853       .  S
O117        C123   1.261       .  A
O117       Co132   1.968       .  S
O118        C121   1.269       .  A
O118       Co135   2.035       .  S
O119        C120   1.302       .  A
O119       Co134   2.046       .  S
C121        C252   1.491       .  S
C122        C165   1.476       .  S
C123        C141   1.480       .  S
O124        C137   1.286       .  A
O124       Co132   2.016       .  S
O125        C138   1.264       .  A
O125       Co133   1.951       .  S
O126        C139   1.274       .  A
O126       Co134   2.059       .  S
O127        C140   1.272       .  A
O127       Co135   2.017       .  S
O128        C140   1.294       .  A
O128       Co701   2.108   1_545  S
O129        C139   1.236       .  A
O129       Co700   1.936       .  S
O130        C137   1.265       .  A
O130       Co135   1.949       .  S
O131        C138   1.303       .  A
O131       Co134   2.080       .  S
Co132       O680   2.016   1_545  S
Co132       O697   1.966   1_545  S
Co132       O704   1.993       .  S
Co133       O681   1.969       .  S
Co133       O696   2.119       .  S
Co133       O136   1.887       .  S
Co134       O136   2.061       .  S
Co135       O704   2.049       .  S
O136       Co700   2.069       .  S
O136       Co703   2.023       .  S
C137        C180   1.468       .  S
C138        C156   1.479       .  S
C139        C240   1.475       .  S
C141        C142   1.408       .  A
C141        C146   1.413       .  A
C142        C143   1.394       .  A
C142        H151   1.082       .  S
C143        C144   1.399       .  A
C143        S147   1.806       .  S
C144        C145   1.404       .  A
C145        C146   1.403       .  A
C145        H152   1.084       .  S
C146        S148   1.802       .  S
S147        H150   1.407       .  S
S148        H149   1.407       .  S
C153        C154   1.401       .  A
C153        C158   1.410       .  A
C154        C155   1.399       .  A
C154        H163   1.081       .  S
C155        C156   1.414       .  A
C155        S159   1.805       .  S
C156        C157   1.406       .  A
C157        C158   1.409       .  A
C157        H164   1.083       .  S
C158        S160   1.806       .  S
S159        H162   1.406       .  S
S160        H161   1.407       .  S
C165        C166   1.401       .  A
C165        C170   1.417       .  A
C166        C167   1.395       .  A
C166        H175   1.083       .  S
C167        C168   1.404       .  A
C167        S171   1.791       .  S
C168        C169   1.400       .  A
C169        C170   1.395       .  A
C169        H176   1.084       .  S
C170        S172   1.802       .  S
S171        H174   1.407       .  S
S172        H173   1.408       .  S
C177        C178   1.397       .  A
C177        C182   1.398       .  A
C178        C179   1.396       .  A
C178        H187   1.083       .  S
C179        C180   1.407       .  A
C179        S183   1.792       .  S
C180        C181   1.406       .  A
C181        C182   1.390       .  A
C181        H188   1.083       .  S
C182        S184   1.794       .  S
S183        H186   1.405       .  S
S184        H185   1.407       .  S
C189        C190   1.401       .  A
C189        C194   1.410       .  A
C190        C191   1.391       .  A
C190        H199   1.084       .  S
C191        C192   1.407       .  A
C191        S195   1.795       .  S
C192        C193   1.406       .  A
C193        C194   1.406       .  A
C193        H200   1.083       .  S
C194        S196   1.801       .  S
S195        H198   1.406       .  S
S196        H197   1.407       .  S
C201        C202   1.401       .  A
C201        C206   1.414       .  A
C202        C203   1.397       .  A
C202        H211   1.081       .  S
C203        C204   1.412       .  A
C203        S207   1.806       .  S
C204        C205   1.400       .  A
C205        C206   1.398       .  A
C205        H212   1.083       .  S
C206        S208   1.809       .  S
S207        H210   1.407       .  S
S208        H209   1.407       .  S
C213        C214   1.397       .  A
C213        C502   1.412       .  A
C214        C215   1.383       .  A
C214        H223   1.084       .  S
C215        C216   1.407       .  A
C215        S219   1.792       .  S
C216        C501   1.400       .  A
C217        C218   1.390       .  A
C217        C500   1.388       .  A
C217        H224   1.082       .  S
C218        C497   1.414       .  A
C218        S220   1.789       .  S
S219        H222   1.405       .  S
S220        H221   1.403       .  S
C225        C230   1.407       .  A
C225        C510   1.404       .  A
C226        C227   1.404       .  A
C226        C509   1.396       .  A
C226        H235   1.083       .  S
C227        C512   1.425       .  A
C227        S231   1.809       .  S
C228        C229   1.409       .  A
C228        C511   1.417       .  A
C229        C230   1.390       .  A
C229        H236   1.082       .  S
C230        S232   1.813       .  S
S231        H234   1.408       .  S
S232        H233   1.407       .  S
C237        C238   1.388       .  A
C237        C810   1.424       .  A
C238        C239   1.392       .  A
C238        H247   1.084       .  S
C239        C240   1.422       .  A
C239        S243   1.796       .  S
C240        C809   1.398       .  A
C241        C242   1.407       .  A
C241        C808   1.404       .  A
C241        H248   1.083       .  S
C242        C805   1.413       .  A
C242        S244   1.805       .  S
S243        H246   1.408       .  S
S244        H245   1.408       .  S
C249        C250   1.407       .  A
C249        C822   1.422       .  A
C250        C251   1.417       .  A
C250        H259   1.082       .  S
C251        C252   1.411       .  A
C251        S255   1.794       .  S
C252        C821   1.397       .  A
C253        C254   1.409       .  A
C253        C820   1.399       .  A
C253        H260   1.083       .  S
C254        C817   1.418       .  A
C254        S256   1.793       .  S
S255        H258   1.406       .  S
S256        H257   1.407       .  S
C261        C262   1.414       .  A
C261        C266   1.416       .  A
C262        C263   1.403       .  A
C262        H271   1.082       .  S
C263        C264   1.404       .  A
C263        S267   1.807       .  S
C264        C265   1.404       .  A
C265        C266   1.383       .  A
C265        H272   1.083       .  S
C266        S268   1.816       .  S
S267        H270   1.407       .  S
S268        H269   1.407       .  S
C273        C274   1.396       .  A
C273        C278   1.404       .  A
C274        C275   1.386       .  A
C274        H283   1.081       .  S
C275        C276   1.419       .  A
C275        S279   1.815       .  S
C276        C277   1.405       .  A
C277        C278   1.393       .  A
C277       H1420   1.082       .  S
C278       S1416   1.806       .  S
S279        H282   1.406       .  S
S280       C1414   1.806       .  S
S280        H281   1.407       .  S
H284       C1413   1.082       .  S
C285        C286   1.540       .  S
C285        C291   1.550       .  S
C285        C289   1.555       .  S
C285        C404   1.595       .  S
C286        H293   1.077       .  S
C286        C287   1.374       .  D
C287        C288   1.576       .  S
C287        C346   1.534       .  S
C288        C292   1.590       .  S
C288        C290   1.589       .  S
C288        H294   1.110       .  S
C289        H295   1.086       .  S
C289        C290   1.385       .  D
C290        C320   1.555       .  S
C291        H296   1.086       .  S
C291        C292   1.382       .  D
C292        C378   1.548       .  S
C297        C298   1.567       .  S
C297        C303   1.535       .  S
C297        C301   1.565       .  S
C297        C424   1.604       .  S
C298        H305   1.085       .  S
C298        C299   1.380       .  D
C299        C300   1.582       .  S
C299        C393   1.549       .  S
C300        C304   1.578       .  S
C300        C302   1.593       .  S
C300        H306   1.110       .  S
C301        H307   1.086       .  S
C301        C302   1.393       .  D
C302        C335   1.573       .  S
C303        H308   1.087       .  S
C303        C304   1.375       .  D
C304        C366   1.531       .  S
O309        C317   1.258       .  A
O309      Co2033   1.970   1_455  S
O310        C318   1.283       .  A
O310      Co1466   2.029       .  S
O311       Co899   1.949   1_554  S
O312        C320   1.282       .  A
O313        C319   1.235       .  A
O313       Co330   2.018   1_455  S
O314        C320   1.285       .  A
O314       Co897   2.070       .  S
O315        C318   1.274       .  A
O315       Co332   1.975       .  S
O316        C317   1.274       .  A
O316       Co899   2.014       .  S
C317        C521   1.484       .  S
C318        C545   1.497       .  S
C319        C509   1.456       .  S
O321        C334   1.254       .  A
O321       Co329   1.935   1_545  S
O322        C335   1.284       .  A
O322       Co898   1.992   1_455  S
O323        C336   1.270       .  A
O323       Co331   2.043       .  S
O324        C905   1.266       .  A
O324       Co332   1.993       .  S
O325        C905   1.278       .  A
O325      Co1466   2.002       .  S
O326       C1472   1.237       .  A
O326       Co329   1.946   1_545  S
O327        C334   1.276       .  A
O327       Co616   2.024   1_545  S
O328        C335   1.310       .  A
Co329      O2013   1.951       .  S
Co329       O882   2.009       .  S
Co329       O901   2.070       .  S
Co330      O1446   2.020       .  S
Co330       O890   2.039   1_655  S
Co330      O1461   1.999       .  S
Co330      O1185   2.122       .  S
Co331       O879   1.967   1_545  S
Co331       O884   2.059   1_545  S
Co331      O2037   2.048   1_445  S
Co332       O611   2.026       .  S
O333       Co897   1.923       .  S
O333      Co1182   1.974   1_556  S
O333      Co2035   2.146       .  S
C334        C497   1.460       .  S
C336       O1462   1.236       .  A
C336        C557   1.490       .  S
C337        O892   1.265       .  A
C337        O893   1.275       .  A
C337        C533   1.493       .  S
O338        C346   1.312       .  A
O338       Co358   2.139       .  S
O339        C347   1.266       .  A
O339       Co359   2.027       .  S
O340        C348   1.267       .  A
O341        C349   1.267       .  A
O342        C348   1.269       .  A
O342       Co359   1.987       .  S
O343        C349   1.267       .  A
O343       Co358   1.975       .  S
O344        C347   1.253       .  A
O344       Co361   1.963       .  S
O345        C346   1.280       .  A
O345       Co360   1.929       .  S
C347        C485   1.492       .  S
C348        C452   1.462       .  S
C349        C500   1.455       .  S
O350        C363   1.280       .  A
O350       Co358   2.018       .  S
O351        C364   1.267       .  A
O351       Co359   1.965       .  S
O352        C365   1.239       .  A
O352       Co360   1.975       .  S
O353        C366   1.269       .  A
O353       Co361   1.992       .  S
O354        C366   1.287       .  A
O354       Co359   2.080       .  S
O355        C365   1.247       .  A
O355       Co358   1.978       .  S
O356        C363   1.262       .  A
O357       Co360   1.978   1_554  S
Co358       O362   2.166       .  S
Co360       O362   1.907       .  S
C363        C461   1.459       .  S
C364        C512   1.480       .  S
C365        C473   1.466       .  S
O367        C375   1.298       .  A
O367      Co1523   2.065   1_455  S
O368        C376   1.263       .  A
O368      Co1524   1.971       .  S
O369        C377   1.251       .  A
O369       Co389   1.974       .  S
O370        C378   1.300       .  A
O370       Co390   2.030       .  S
O371        C377   1.264       .  A
O371       Co388   2.027       .  S
O372        C378   1.299       .  A
O372       Co387   2.054       .  S
O373        C376   1.265       .  A
O373       Co390   1.993       .  S
O374        C375   1.278       .  A
O374       Co389   1.897       .  S
C375        C476   1.463       .  S
C376        C548   1.488       .  S
C377        C437   1.486       .  S
O379        C392   1.269       .  A
O379       Co387   2.039       .  S
O380        C393   1.270       .  A
O380       Co388   2.006       .  S
O381        C394   1.275       .  A
O381       Co389   2.003       .  S
O382        C395   1.286       .  A
O382       Co390   2.028       .  S
O383        C395   1.276       .  A
O383      Co1524   1.986       .  S
O384       C1530   1.302       .  A
O384       Co387   2.095       .  S
O385        C392   1.246       .  A
O385       Co390   1.965       .  S
O386        C393   1.295       .  A
O386       Co389   2.098       .  S
Co387      O1503   2.110       .  S
Co387       O391   2.096       .  S
Co388      O1504   1.973   1_455  S
Co388      O1519   1.979   1_455  S
Co388      O1527   2.076   1_455  S
Co389      O1527   1.929   1_455  S
Co390       O391   2.038       .  S
O391      Co1524   2.069       .  S
O391      Co1525   1.886       .  S
C392        C428   1.469       .  S
C394       O1520   1.257       .  A
C394        C560   1.486       .  S
C395        C488   1.483       .  S
O396        C404   1.308       .  A
O396       Co984   2.064       .  S
O397        C405   1.247       .  A
O397       Co985   1.984   1_545  S
O398        C406   1.307       .  A
O398       Co418   2.100       .  S
O399        C407   1.267       .  A
O399       Co419   1.992       .  S
O400        C406   1.270       .  A
O400       Co417   1.852       .  S
O401        C407   1.270       .  A
O401       Co416   1.990   1_545  S
O402        C405   1.270       .  A
O402       Co419   2.055       .  S
O403        C404   1.300       .  A
O403       Co418   2.040       .  S
C405        C536   1.494       .  S
C406        C449   1.471       .  S
C407        C425   1.504       .  S
O408        C421   1.293       .  A
O408       Co416   2.042   1_545  S
O409        C422   1.265       .  A
O409       Co417   1.967       .  S
O410        C423   1.275       .  A
O410       Co418   2.067       .  S
O411        C424   1.271       .  A
O411       Co419   2.015       .  S
O412        C424   1.298       .  A
O412       Co985   2.116   1_545  S
O413        C423   1.239       .  A
O413       Co984   1.947       .  S
O414        C421   1.269       .  A
O414       Co419   1.959       .  S
O415        C422   1.303       .  A
O415       Co418   2.086       .  S
Co416       O964   2.008       .  S
Co416       O981   1.952       .  S
Co416       O988   2.044   1_565  S
Co417       O965   1.987       .  S
Co417       O980   2.082       .  S
Co417       O420   1.898       .  S
Co418       O420   2.060       .  S
Co419       O988   2.057       .  S
O420       Co984   2.056       .  S
O420       Co987   2.040       .  S
C421        C464   1.475       .  S
C422        C440   1.491       .  S
C423        C524   1.484       .  S
C425        C426   1.412       .  A
C425        C430   1.421       .  A
C426        C427   1.390       .  A
C426        H435   1.083       .  S
C427        C428   1.403       .  A
C427        S431   1.806       .  S
C428        C429   1.406       .  A
C429        C430   1.411       .  A
C429        H436   1.084       .  S
C430        S432   1.799       .  S
S431        H434   1.408       .  S
S432        H433   1.406       .  S
C437        C438   1.405       .  A
C437        C442   1.414       .  A
C438        C439   1.408       .  A
C438        H447   1.081       .  S
C439        C440   1.412       .  A
C439        S443   1.804       .  S
C440        C441   1.407       .  A
C441        C442   1.409       .  A
C441        H448   1.084       .  S
C442        S444   1.802       .  S
S443        H446   1.407       .  S
S444        H445   1.405       .  S
C449        C450   1.395       .  A
C449        C454   1.413       .  A
C450        C451   1.391       .  A
C450        H459   1.082       .  S
C451        C452   1.411       .  A
C451        S455   1.790       .  S
C452        C453   1.399       .  A
C453        C454   1.395       .  A
C453        H460   1.084       .  S
C454        S456   1.798       .  S
S455        H458   1.406       .  S
S456        H457   1.408       .  S
C461        C462   1.404       .  A
C461        C466   1.400       .  A
C462        C463   1.399       .  A
C462        H471   1.084       .  S
C463        C464   1.411       .  A
C463        S467   1.795       .  S
C464        C465   1.406       .  A
C465        C466   1.389       .  A
C465        H472   1.083       .  S
C466        S468   1.796       .  S
S467        H470   1.398       .  S
S468        H469   1.407       .  S
C473        C474   1.400       .  A
C473        C478   1.412       .  A
C474        C475   1.390       .  A
C474        H483   1.084       .  S
C475        C476   1.404       .  A
C475        S479   1.791       .  S
C476        C477   1.402       .  A
C477        C478   1.402       .  A
C477        H484   1.083       .  S
C478        S480   1.804       .  S
S479        H482   1.407       .  S
S480        H481   1.407       .  S
C485        C486   1.404       .  A
C485        C490   1.419       .  A
C486        C487   1.402       .  A
C486        H495   1.082       .  S
C487        C488   1.413       .  A
C487        S491   1.807       .  S
C488        C489   1.403       .  A
C489        C490   1.410       .  A
C489        H496   1.083       .  S
C490        S492   1.808       .  S
S491        H494   1.405       .  S
S492        H493   1.407       .  S
C497        C498   1.393       .  A
C498        C499   1.391       .  A
C498        H507   1.084       .  S
C499        C500   1.406       .  A
C499        S503   1.780       .  S
C501        C502   1.396       .  A
C501        H508   1.083       .  S
C502        S504   1.802       .  S
S503        H506   1.404       .  S
S504        H505   1.406       .  S
C509        C514   1.408       .  A
C510        C511   1.404       .  A
C510        H519   1.083       .  S
C511        S515   1.808       .  S
C512        C513   1.401       .  A
C513        C514   1.386       .  A
C513        H520   1.082       .  S
C514        S516   1.808       .  S
S515        H518   1.407       .  S
S516        H517   1.407       .  S
C521        C522   1.393       .  A
C521       C1094   1.418       .  A
C522        C523   1.396       .  A
C522        H531   1.083       .  S
C523        C524   1.420       .  A
C523        S527   1.802       .  S
C524       C1093   1.404       .  A
C525       C1092   1.397       .  A
C525        C526   1.399       .  A
C525        H532   1.083       .  S
C526       C1089   1.419       .  A
C526        S528   1.811       .  S
S527        H530   1.407       .  S
S528        H529   1.407       .  S
C533        C534   1.395       .  A
C533       C1106   1.420       .  A
C534        C535   1.406       .  A
C534        H543   1.083       .  S
C535        C536   1.417       .  A
C535        S539   1.783       .  S
C536       C1105   1.398       .  A
C537       C1104   1.396       .  A
C537        C538   1.406       .  A
C537        H544   1.083       .  S
C538       C1101   1.421       .  A
C538        S540   1.796       .  S
S539        H542   1.407       .  S
S540        H541   1.407       .  S
C545        C546   1.417       .  A
C545        C550   1.420       .  A
C546        C547   1.416       .  A
C546        H555   1.082       .  S
C547        C548   1.409       .  A
C547        S551   1.805       .  S
C548        C549   1.403       .  A
C549        C550   1.386       .  A
C549        H556   1.085       .  S
C550        S552   1.807       .  S
S551        H554   1.407       .  S
S552        H553   1.396       .  S
C557        C558   1.394       .  A
C557        C562   1.430       .  A
C558        C559   1.407       .  A
C558        H567   1.079       .  S
C559        C560   1.430       .  A
C559        S563   1.811   1_455  S
C560        C561   1.393       .  A
C561        C562   1.394       .  A
C561       H1704   1.082       .  S
C562       S1700   1.816       .  S
S563        H566   1.406       .  S
S564       C1698   1.818       .  S
S564        H565   1.406       .  S
H568       C1697   1.081       .  S
C569        C570   1.538       .  S
C569        C575   1.562       .  S
C569        C573   1.547       .  S
C569        C688   1.600       .  S
C570        H577   1.073       .  S
C570        C571   1.372       .  D
C571        C572   1.572       .  S
C571        C630   1.531       .  S
C572        C576   1.589       .  S
C572        C574   1.584       .  S
C572        H578   1.110       .  S
C573        H579   1.085       .  S
C573        C574   1.382       .  D
C574        C604   1.542       .  S
C575        H580   1.085       .  S
C575        C576   1.389       .  D
C576        C662   1.560       .  S
C581        C582   1.566       .  S
C581        C587   1.547       .  S
C581        C585   1.564       .  S
C581        C708   1.604       .  S
C582        H589   1.085       .  S
C582        C583   1.374       .  D
C583        C584   1.590       .  S
C583        C677   1.559       .  S
C584        C588   1.595       .  S
C584        C586   1.596       .  S
C584        H590   1.110       .  S
C585        H591   1.086       .  S
C585        C586   1.391       .  D
C586        C619   1.577       .  S
C587        H592   1.086       .  S
C587        C588   1.377       .  D
C588        C650   1.552       .  S
O593        C601   1.258       .  A
O593      Co1181   1.967   1_455  S
O594        C602   1.282       .  A
O594      Co1750   2.022   1_565  S
O595        C887   1.254       .  A
O596        C604   1.279       .  A
O596       Co900   2.044       .  S
O597        C603   1.237       .  A
O597       Co614   2.035   1_465  S
O598        C604   1.281       .  A
O599        C602   1.276       .  A
O599       Co616   1.983   1_554  S
O600        C601   1.271       .  A
C601        C805   1.474       .  S
C602        C829   1.499       .  S
C603        O879   1.220   1_554  A
C603        C793   1.467       .  S
O605        C618   1.256       .  A
O605       Co613   1.943       .  S
O606        C619   1.285       .  A
O607        C620   1.264       .  A
O607       Co615   2.014       .  S
O608       Co616   1.985   1_544  S
O609      Co1750   1.996       .  S
O610       C1756   1.237       .  A
O610       Co613   1.950       .  S
O611        C618   1.277       .  A
O612        C619   1.311       .  A
O612       Co899   2.154   1_554  S
Co613      O1161   1.956       .  S
Co614      O1730   2.018   1_545  S
Co614      O1745   2.006       .  S
Co614      O2037   2.131   1_544  S
Co615       O896   2.070       .  S
Co615      O1185   2.071   1_455  S
Co616       O880   2.053       .  S
Co616       O901   2.071       .  S
O617      Co2034   1.970   1_565  S
O617       Co900   2.044       .  S
O617      Co1183   2.133   1_565  S
C618        C781   1.465       .  S
C620       O1746   1.239       .  A
C620        C841   1.479       .  S
C621        C817   1.492       .  S
O622        C630   1.307       .  A
O622       Co642   2.116       .  S
O623        C631   1.238       .  A
O623       Co643   2.004       .  S
O624        C632   1.243       .  A
O624       Co928   1.947   1_554  S
O625        C633   1.268       .  A
O625       Co929   1.991       .  S
O626        C632   1.298       .  A
O626       Co643   1.997       .  S
O627        C633   1.270       .  A
O627       Co642   1.981       .  S
O628        C631   1.238       .  A
O628       Co645   2.003       .  S
O629        C630   1.283       .  A
O629       Co644   1.945       .  S
C631        C769   1.481       .  S
C632        C736   1.477       .  S
C633        C784   1.465       .  S
O634        C647   1.277       .  A
O634       Co642   2.010       .  S
O635        C648   1.271       .  A
O635       Co643   2.027       .  S
O636        C649   1.236       .  A
O636       Co644   1.972       .  S
O637        C650   1.295       .  A
O637       Co645   2.042       .  S
O638        C650   1.293       .  A
O638       Co643   2.066       .  S
O639        C649   1.250       .  A
O639       Co642   1.995       .  S
O640        C647   1.261       .  A
O640       Co929   1.958       .  S
O641        C932   1.269       .  A
O641       Co644   1.987       .  S
Co642       O646   2.168       .  S
Co643       O930   2.216   1_554  S
Co644       O908   1.957       .  S
Co644       O646   1.902       .  S
Co645       O909   2.020   1_554  S
Co645       O924   1.968   1_554  S
Co645       O930   2.078   1_554  S
O646       Co927   2.157       .  S
O646       Co929   1.909       .  S
C647        C745   1.460       .  S
C648        O925   1.253       .  A
C648        C796   1.494       .  S
C649        C757   1.469       .  S
O651        C659   1.298       .  A
O651      Co1807   2.067   1_455  S
O652        C660   1.259       .  A
O652      Co1808   1.957       .  S
O653        C661   1.253       .  A
O653       Co673   1.961       .  S
O654        C662   1.301       .  A
O654       Co674   2.038       .  S
O655        C661   1.258       .  A
O655       Co672   1.991       .  S
O656        C662   1.303       .  A
O656       Co671   2.066       .  S
O657        C660   1.269       .  A
O657       Co674   2.009       .  S
O658        C659   1.280       .  A
O658       Co673   1.916       .  S
C659        C760   1.475       .  S
C660        C832   1.499       .  S
C661        C721   1.451       .  S
O663        C676   1.268       .  A
O663       Co671   2.031       .  S
O664        C677   1.274       .  A
O664       Co672   2.012       .  S
O665        C678   1.272       .  A
O665       Co673   1.994       .  S
O666        C679   1.287       .  A
O666       Co674   2.022       .  S
O667        C679   1.276       .  A
O667      Co1808   1.980       .  S
O668       C1814   1.305       .  A
O668       Co671   2.105       .  S
O669        C676   1.250       .  A
O669       Co674   1.976       .  S
O670        C677   1.298       .  A
O670       Co673   2.108       .  S
Co671      O1787   2.107       .  S
Co671       O675   2.096       .  S
Co672      O1788   1.969   1_455  S
Co672      O1803   1.971   1_455  S
Co672      O1811   2.074   1_455  S
Co673      O1811   1.923   1_455  S
Co674       O675   2.045       .  S
O675      Co1808   2.070       .  S
O675      Co1809   1.886       .  S
C676        C712   1.472       .  S
C678       O1804   1.256       .  A
C678        C844   1.478       .  S
C679        C772   1.477       .  S
O680        C688   1.292       .  A
O681        C689   1.251       .  A
O682        C690   1.287       .  A
O682       Co702   2.028       .  S
O683        C691   1.264       .  A
O683       Co703   1.981       .  S
O684        C690   1.281       .  A
O684       Co701   1.905       .  S
O685        C691   1.270       .  A
O685       Co700   2.001       .  S
O686        C689   1.273       .  A
O686       Co703   2.051       .  S
O687        C688   1.296       .  A
O687       Co702   2.102       .  S
C689        C820   1.492       .  S
C690        C733   1.451       .  S
C691        C709   1.504       .  S
O692        C705   1.289       .  A
O692       Co700   2.027       .  S
O693        C706   1.266       .  A
O693       Co701   1.996       .  S
O694        C707   1.258       .  A
O694       Co702   2.014       .  S
O695        C708   1.270       .  A
O695       Co703   2.008       .  S
O696        C708   1.296       .  A
O697        C707   1.246       .  A
O698        C705   1.269       .  A
O698       Co703   1.961       .  S
O699        C706   1.262       .  A
O699       Co702   1.950       .  S
Co701       O704   1.940   1_565  S
Co702       O704   2.120   1_565  S
C705        C748   1.466       .  S
C706        C724   1.481       .  S
C707        C808   1.478       .  S
C709        C710   1.413       .  A
C709        C714   1.419       .  A
C710        C711   1.388       .  A
C710        H719   1.083       .  S
C711        C712   1.402       .  A
C711        S715   1.806       .  S
C712        C713   1.409       .  A
C713        C714   1.414       .  A
C713        H720   1.083       .  S
C714        S716   1.801       .  S
S715        H718   1.407       .  S
S716        H717   1.405       .  S
C721        C722   1.405       .  A
C721        C726   1.395       .  A
C722        C723   1.409       .  A
C722        H731   1.082       .  S
C723        C724   1.414       .  A
C723        S727   1.804       .  S
C724        C725   1.405       .  A
C725        C726   1.379       .  A
C725        H732   1.077       .  S
C726        S728   1.807       .  S
S727        H730   1.407       .  S
S728        H729   1.406       .  S
C733        C734   1.389       .  A
C733        C738   1.388       .  A
C734        C735   1.388       .  A
C734        H743   1.069       .  S
C735        C736   1.410       .  A
C735        S739   1.787       .  S
C736        C737   1.422       .  A
C737        C738   1.397       .  A
C737        H744   1.084       .  S
C738        S740   1.794       .  S
S739        H742   1.407       .  S
S740        H741   1.407       .  S
C745        C746   1.408       .  A
C745        C750   1.404       .  A
C746        C747   1.404       .  A
C746        H755   1.083       .  S
C747        C748   1.405       .  A
C747        S751   1.801       .  S
C748        C749   1.401       .  A
C749        C750   1.383       .  A
C749        H756   1.083       .  S
C750        S752   1.793       .  S
S751        H754   1.406       .  S
S752        H753   1.408       .  S
C757        C758   1.396       .  A
C757        C762   1.414       .  A
C758        C759   1.391       .  A
C758        H767   1.085       .  S
C759        C760   1.403       .  A
C759        S763   1.778       .  S
C760        C761   1.404       .  A
C761        C762   1.407       .  A
C761        H768   1.080       .  S
C762        S764   1.805       .  S
S763        H766   1.407       .  S
S764        H765   1.405       .  S
C769        C770   1.402       .  A
C769        C774   1.417       .  A
C770        C771   1.405       .  A
C770        H779   1.083       .  S
C771        C772   1.416       .  A
C771        S775   1.807       .  S
C772        C773   1.398       .  A
C773        C774   1.400       .  A
C773        H780   1.083       .  S
C774        S776   1.809       .  S
S775        H778   1.405       .  S
S776        H777   1.407       .  S
C781        C782   1.394       .  A
C781       C1070   1.413       .  A
C782        C783   1.394       .  A
C782        H791   1.084       .  S
C783        C784   1.412       .  A
C783        S787   1.787       .  S
C784       C1069   1.393       .  A
C785       C1068   1.402       .  A
C785        C786   1.397       .  A
C785        H792   1.083       .  S
C786       C1065   1.412       .  A
C786        S788   1.802       .  S
S787        H790   1.404       .  S
S788        H789   1.407       .  S
C793       C1078   1.409       .  A
C793        C798   1.400       .  A
C794       C1077   1.404       .  A
C794        C795   1.408       .  A
C794        H803   1.083       .  S
C795       C1080   1.419       .  A
C795        S799   1.806       .  S
C796       C1079   1.412       .  A
C796        C797   1.411       .  A
C797        C798   1.385       .  A
C797        H804   1.082       .  S
C798        S800   1.806       .  S
S799        H802   1.407       .  S
S800        H801   1.407       .  S
C805        C806   1.395       .  A
C806        C807   1.395       .  A
C806        H815   1.084       .  S
C807        C808   1.414       .  A
C807        S811   1.796       .  S
C809        C810   1.409       .  A
C809        H816   1.082       .  S
C810        S812   1.807       .  S
S811        H814   1.408       .  S
S812        H813   1.407       .  S
C817        C818   1.398       .  A
C818        C819   1.407       .  A
C818        H827   1.083       .  S
C819        C820   1.416       .  A
C819        S823   1.793       .  S
C821        C822   1.403       .  A
C821        H828   1.083       .  S
C822        S824   1.805       .  S
S823        H826   1.407       .  S
S824        H825   1.407       .  S
C829        C830   1.417       .  A
C829        C834   1.417       .  A
C830        C831   1.412       .  A
C830        H839   1.083       .  S
C831        C832   1.411       .  A
C831        S835   1.798       .  S
C832        C833   1.411       .  A
C833        C834   1.392       .  A
C833        H840   1.082       .  S
C834        S836   1.815       .  S
S835        H838   1.407       .  S
S836        H837   1.407       .  S
C841        C842   1.391       .  A
C841        C846   1.427       .  A
C842        C843   1.400       .  A
C842        H851   1.080       .  S
C843        C844   1.428       .  A
C843        S847   1.813   1_455  S
C844        C845   1.395       .  A
C845        C846   1.393       .  A
C845       H1988   1.082       .  S
C846       S1984   1.817       .  S
S847        H850   1.406       .  S
S848       C1982   1.818       .  S
S848        H849   1.406       .  S
H852       C1981   1.082       .  S
C853        C854   1.531       .  S
C853        C859   1.546       .  S
C853        C857   1.549       .  S
C853        C972   1.588       .  S
C854        H861   1.082       .  S
C854        C855   1.375       .  D
C855        C856   1.568       .  S
C855        C914   1.516       .  S
C856        C860   1.582       .  S
C856        C858   1.574       .  S
C856        H862   1.110       .  S
C857        H863   1.086       .  S
C857        C858   1.384       .  D
C858        C888   1.537       .  S
C859        H864   1.086       .  S
C859        C860   1.386       .  D
C860        C946   1.535       .  S
C865        C866   1.550       .  S
C865        C871   1.537       .  S
C865        C869   1.559       .  S
C865        C992   1.575       .  S
C866        H873   1.086       .  S
C866        C867   1.363       .  D
C867        C868   1.574       .  S
C867        C961   1.521       .  S
C868        C872   1.571       .  S
C868        C870   1.589       .  S
C868        H874   1.110       .  S
C869        H875   1.085       .  S
C869        C870   1.388       .  D
C870        C903   1.556       .  S
C871        H876   1.085       .  S
C871        C872   1.374       .  D
C872        C934   1.521       .  S
O877        C885   1.271       .  A
O877      Co1465   1.948   1_455  S
O878        C886   1.277       .  A
O878      Co2034   1.993   1_565  S
O880        C888   1.275       .  A
O881        C887   1.261       .  A
O881       Co898   2.008   1_465  S
O882        C888   1.262       .  A
O883        C886   1.273       .  A
O883       Co900   1.962       .  S
O884        C885   1.299       .  A
C885       C1089   1.467       .  S
C886       C1113   1.479       .  S
C887       C1077   1.475       .  S
O889        C902   1.256       .  A
O889       Co897   1.967       .  S
O890        C903   1.302       .  A
O891        C904   1.294       .  A
O891       Co899   2.032       .  S
O892       Co900   1.988   1_545  S
O893      Co2034   2.013       .  S
O894       C2040   1.276       .  A
O894       Co897   1.896       .  S
O895        C902   1.264       .  A
O896        C903   1.311       .  A
Co897      O1445   1.977       .  S
Co898      O2014   1.979   1_545  S
Co898      O2029   2.016       .  S
Co898      O1753   1.978   1_545  S
Co899      O1469   2.139   1_455  S
O901      Co1750   2.124   1_566  S
O901      Co1467   2.058   1_565  S
C902       C1065   1.467       .  S
C904       O2030   1.277       .  A
C904       C1125   1.449       .  S
C905       C1101   1.501       .  S
O906        C914   1.265       .  A
O906       Co926   2.036       .  S
O907        C915   1.247       .  A
O907       Co927   1.968       .  S
O908        C916   1.266       .  A
O909        C917   1.270       .  A
O910        C916   1.283       .  A
O910       Co927   2.033       .  S
O911        C917   1.255       .  A
O911       Co926   1.952       .  S
O912        C915   1.246       .  A
O912       Co929   1.973       .  S
O913        C914   1.260       .  A
O913       Co928   2.004       .  S
C915       C1053   1.468       .  S
C916       C1020   1.468       .  S
C917       C1068   1.466       .  S
O918        C931   1.273       .  A
O918       Co926   2.006       .  S
O919        C932   1.273       .  A
O919       Co927   2.004       .  S
O920        C933   1.258       .  A
O920       Co928   1.959       .  S
O921        C934   1.273       .  A
O921       Co929   1.898       .  S
O922        C934   1.318       .  A
O922       Co927   2.158       .  S
O923        C933   1.272       .  A
O923       Co926   2.012       .  S
O924        C931   1.264       .  A
O925       Co928   1.983   1_554  S
Co926       O930   2.083       .  S
Co928       O930   2.171       .  S
C931       C1029   1.470       .  S
C932       C1080   1.491       .  S
C933       C1041   1.481       .  S
O935        C943   1.297       .  A
O935      Co2091   2.059   1_455  S
O936        C944   1.261       .  A
O936      Co2092   1.954       .  S
O937        C945   1.248       .  A
O937       Co957   1.965       .  S
O938        C946   1.292       .  A
O938       Co958   2.007       .  S
O939        C945   1.261       .  A
O939       Co956   2.024       .  S
O940        C946   1.300       .  A
O940       Co955   2.055       .  S
O941        C944   1.262       .  A
O941       Co958   1.979       .  S
O942        C943   1.277       .  A
O942       Co957   1.899       .  S
C943       C1044   1.469       .  S
C944       C1116   1.474       .  S
C945       C1005   1.471       .  S
O947        C960   1.274       .  A
O947       Co955   2.051       .  S
O948        C961   1.265       .  A
O948       Co956   1.983       .  S
O949        C962   1.262       .  A
O949       Co957   1.965       .  S
O950        C963   1.277       .  A
O950       Co958   1.997       .  S
O951        C963   1.269       .  A
O951      Co2092   1.971       .  S
O952       C2098   1.301       .  A
O952       Co955   2.078       .  S
O953        C960   1.247       .  A
O953       Co958   1.970       .  S
O954        C961   1.292       .  A
O954       Co957   2.079       .  S
Co955      O2071   2.110       .  S
Co955       O959   2.082       .  S
Co956      O2072   1.947   1_455  S
Co956      O2087   1.971   1_455  S
Co956      O2095   2.066   1_455  S
Co957      O2095   1.901   1_455  S
Co958       O959   2.021       .  S
O959      Co2092   2.052       .  S
O959      Co2093   1.862       .  S
C960        C996   1.472       .  S
C962       O2088   1.258       .  A
C962       C1128   1.464       .  S
C963       C1056   1.460       .  S
O964        C972   1.304       .  A
O965        C973   1.254       .  A
O966        C974   1.310       .  A
O966       Co986   2.076       .  S
O967        C975   1.269       .  A
O967       Co987   2.000       .  S
O968        C974   1.280       .  A
O968       Co985   1.866       .  S
O969        C975   1.264       .  A
O969       Co984   1.981       .  S
O970        C973   1.268       .  A
O970       Co987   2.043       .  S
O971        C972   1.316       .  A
O971       Co986   2.104       .  S
C973       C1104   1.497       .  S
C974       C1017   1.475       .  S
C975        C993   1.496       .  S
O976        C989   1.292       .  A
O976       Co984   2.042       .  S
O977        C990   1.268       .  A
O977       Co985   1.985       .  S
O978        C991   1.240       .  A
O978       Co986   1.993       .  S
O979        C992   1.274       .  A
O979       Co987   2.004       .  S
O980        C992   1.288       .  A
O981        C991   1.233       .  A
O982        C989   1.270       .  A
O982       Co987   1.968       .  S
O983        C990   1.270       .  A
O983       Co986   1.988       .  S
Co985       O988   1.889   1_565  S
Co986       O988   2.122   1_565  S
C989       C1032   1.488       .  S
C990       C1008   1.484       .  S
C991       C1092   1.464       .  S
C993        C994   1.408       .  A
C993        C998   1.418       .  A
C994        C995   1.392       .  A
C994       H1003   1.084       .  S
C995        C996   1.404       .  A
C995        S999   1.803       .  S
C996        C997   1.407       .  A
C997        C998   1.414       .  A
C997       H1004   1.083       .  S
C998       S1000   1.807       .  S
S999       H1002   1.407       .  S
S1000      H1001   1.407       .  S
C1005      C1006   1.400       .  A
C1005      C1010   1.408       .  A
C1006      C1007   1.401       .  A
C1006      H1015   1.082       .  S
C1007      C1008   1.417       .  A
C1007      S1011   1.808       .  S
C1008      C1009   1.407       .  A
C1009      C1010   1.405       .  A
C1009      H1016   1.083       .  S
C1010      S1012   1.805       .  S
S1011      H1014   1.406       .  S
S1012      H1013   1.406       .  S
C1017      C1018   1.405       .  A
C1017      C1022   1.416       .  A
C1018      C1019   1.403       .  A
C1018      H1027   1.083       .  S
C1019      C1020   1.407       .  A
C1019      S1023   1.799       .  S
C1020      C1021   1.398       .  A
C1021      C1022   1.391       .  A
C1021      H1028   1.085       .  S
C1022      S1024   1.799       .  S
S1023      H1026   1.407       .  S
S1024      H1025   1.405   1_565  S
C1029      C1030   1.405       .  A
C1029      C1034   1.403       .  A
C1030      C1031   1.404       .  A
C1030      H1039   1.084       .  S
C1031      C1032   1.410       .  A
C1031      S1035   1.794       .  S
C1032      C1033   1.406       .  A
C1033      C1034   1.397       .  A
C1033      H1040   1.083       .  S
C1034      S1036   1.792       .  S
S1035      H1038   1.405       .  S
S1036      H1037   1.406       .  S
C1041      C1042   1.407       .  A
C1041      C1046   1.414       .  A
C1042      C1043   1.396       .  A
C1042      H1051   1.083       .  S
C1043      C1044   1.406       .  A
C1043      S1047   1.805       .  S
C1044      C1045   1.403       .  A
C1045      C1046   1.400       .  A
C1045      H1052   1.083       .  S
C1046      S1048   1.799       .  S
S1047      H1050   1.407       .  S
S1048      H1049   1.407       .  S
C1053      C1054   1.401       .  A
C1053      C1058   1.417       .  A
C1054      C1055   1.397       .  A
C1054      H1063   1.083       .  S
C1055      C1056   1.411       .  A
C1055      S1059   1.806       .  S
C1056      C1057   1.397       .  A
C1057      C1058   1.392       .  A
C1057      H1064   1.084       .  S
C1058      S1060   1.804       .  S
S1059      H1062   1.407       .  S
S1060      H1061   1.400       .  S
C1065      C1066   1.402       .  A
C1066      C1067   1.391       .  A
C1066      H1075   1.084       .  S
C1067      C1068   1.403       .  A
C1067      S1071   1.785       .  S
C1069      C1070   1.394       .  A
C1069      H1076   1.083       .  S
C1070      S1072   1.791       .  S
S1071      H1074   1.407       .  S
S1072      H1073   1.403       .  S
C1077      C1082   1.410       .  A
C1078      C1079   1.417       .  A
C1078      H1087   1.082       .  S
C1079      S1083   1.803       .  S
C1080      C1081   1.407       .  A
C1081      C1082   1.394       .  A
C1081      H1088   1.082       .  S
C1082      S1084   1.811       .  S
S1083      H1086   1.406       .  S
S1084      H1085   1.407       .  S
C1089      C1090   1.395       .  A
C1090      C1091   1.395       .  A
C1090      H1099   1.083       .  S
C1091      C1092   1.412       .  A
C1091      S1095   1.801       .  S
C1093      C1094   1.415       .  A
C1093      H1100   1.082       .  S
C1094      S1096   1.806       .  S
S1095      H1098   1.407       .  S
S1096      H1097   1.407       .  S
C1101      C1102   1.405       .  A
C1102      C1103   1.416       .  A
C1102      H1111   1.083       .  S
C1103      C1104   1.413       .  A
C1103      S1107   1.790       .  S
C1105      C1106   1.409       .  A
C1105      H1112   1.083       .  S
C1106      S1108   1.795       .  S
S1107      H1110   1.407       .  S
S1108      H1109   1.407       .  S
C1113      C1114   1.414       .  A
C1113      C1118   1.416       .  A
C1114      C1115   1.406       .  A
C1114      H1123   1.082       .  S
C1115      C1116   1.406       .  A
C1115      S1119   1.806       .  S
C1116      C1117   1.405       .  A
C1117      C1118   1.383       .  A
C1117      H1124   1.083       .  S
C1118      S1120   1.815       .  S
S1119      H1122   1.407       .  S
S1120      H1121   1.408       .  S
C1125      C1126   1.394       .  A
C1125      C1130   1.402       .  A
C1126      C1127   1.387       .  A
C1126      H1135   1.081       .  S
C1127      C1128   1.421       .  A
C1127      S1131   1.816       .  S
C1128      C1129   1.405       .  A
C1129      C1130   1.393       .  A
C1129      H2272   1.083       .  S
C1130      S2268   1.805       .  S
S1131      H1134   1.407       .  S
S1132      C2266   1.808       .  S
S1132      H1133   1.407       .  S
H1136      C2265   1.083       .  S
C1137      C1138   1.541       .  S
C1137      C1143   1.548       .  S
C1137      C1141   1.547       .  S
C1137      C1256   1.592       .  S
C1138      H1145   1.075       .  S
C1138      C1139   1.373       .  D
C1139      C1140   1.585       .  S
C1139      C1198   1.542       .  S
C1140      C1144   1.611       .  S
C1140      C1142   1.579       .  S
C1140      H1146   1.110       .  S
C1141      H1147   1.086       .  S
C1141      C1142   1.384       .  D
C1142      C1172   1.544       .  S
C1143      H1148   1.086       .  S
C1143      C1144   1.379       .  D
C1144      C1230   1.566       .  S
C1149      C1150   1.562       .  S
C1149      C1155   1.544       .  S
C1149      C1153   1.556       .  S
C1149      C1276   1.592       .  S
C1150      H1157   1.086       .  S
C1150      C1151   1.372       .  D
C1151      C1152   1.587       .  S
C1151      C1245   1.549       .  S
C1152      C1156   1.571       .  S
C1152      C1154   1.596       .  S
C1152      H1158   1.110       .  S
C1153      H1159   1.084       .  S
C1153      C1154   1.386       .  D
C1154      C1187   1.564       .  S
C1155      H1160   1.086       .  S
C1155      C1156   1.380       .  D
C1156      C1218   1.530       .  S
O1161      C1169   1.270       .  A
O1162      C1170   1.275       .  A
O1163      C1455   1.222       .  A
O1163     Co1751   1.962       .  S
O1164      C1172   1.279       .  A
O1164     Co1468   2.062       .  S
O1165      C1171   1.256       .  A
O1165     Co1182   1.991       .  S
O1166      C1172   1.262       .  A
O1166     Co1749   2.009       .  S
O1167      C1170   1.273       .  A
O1167     Co1184   1.963       .  S
O1168      C1169   1.305       .  A
O1168     Co1751   2.080       .  S
C1169      C1373   1.490       .  S
C1170      C1397   1.475       .  S
C1171      O1447   1.254       .  A
C1171      C1361   1.463       .  S
O1173      C1186   1.251       .  A
O1173     Co1181   1.962   1_545  S
O1174      C1187   1.303       .  A
O1174     Co1750   2.037       .  S
O1175      C1188   1.294       .  A
O1175     Co1183   2.033       .  S
O1176      C1757   1.267       .  A
O1176     Co1184   1.993       .  S
O1177      C1757   1.275       .  A
O1178     Co1181   1.897   1_445  S
O1179      C1186   1.263       .  A
O1179     Co2036   1.992   1_545  S
O1180      C1187   1.316       .  A
O1180     Co1467   2.085   1_554  S
Co1181     O1734   2.078       .  S
Co1181     O1753   1.921       .  S
Co1182     O1742   2.002       .  S
Co1183     O1731   1.950   1_545  S
Co1183     O1736   2.005   1_545  S
Co1183     O1464   2.134       .  S
Co1184     O1448   2.058   1_554  S
Co1184     O2031   1.994   1_554  S
Co1184     O1469   2.052   1_554  S
O1185     Co1749   2.068       .  S
O1185     Co1468   2.082       .  S
C1186      C1349   1.460       .  S
C1188      C1409   1.452       .  S
C1189      O1744   1.266       .  A
C1189      O1745   1.279       .  A
C1189      C1385   1.502       .  S
O1190      C1198   1.302       .  A
O1190     Co1210   2.107       .  S
O1191      C1199   1.248       .  A
O1191     Co1211   1.987       .  S
O1192      C1200   1.267       .  A
O1192     Co1496   1.960   1_554  S
O1193      C1201   1.269       .  A
O1193     Co1497   2.004       .  S
O1194      C1200   1.280       .  A
O1194     Co1211   2.017       .  S
O1195      C1201   1.258       .  A
O1195     Co1210   1.957       .  S
O1196      C1199   1.244       .  A
O1196     Co1213   1.975       .  S
O1197      C1198   1.288       .  A
O1197     Co1212   1.967       .  S
C1199      C1337   1.476       .  S
C1200      C1304   1.464       .  S
C1201      C1352   1.459       .  S
O1202      C1215   1.280       .  A
O1202     Co1210   2.022       .  S
O1203      C1216   1.277       .  A
O1203     Co1211   2.001       .  S
O1204      C1217   1.245       .  A
O1204     Co1212   1.980       .  S
O1205      C1218   1.277       .  A
O1205     Co1213   1.916       .  S
O1206      C1218   1.319       .  A
O1206     Co1211   2.150       .  S
O1207      C1217   1.249       .  A
O1207     Co1210   1.977       .  S
O1208      C1215   1.258       .  A
O1208     Co1497   1.954       .  S
O1209      C1500   1.277       .  A
O1209     Co1212   2.009       .  S
Co1210     O1214   2.152       .  S
Co1211     O1498   2.167   1_554  S
Co1212     O1476   1.960       .  S
Co1212     O1214   1.932       .  S
Co1213     O1477   1.985   1_554  S
Co1213     O1492   1.961   1_554  S
Co1213     O1498   1.916   1_554  S
O1214     Co1495   2.169       .  S
O1214     Co1497   1.924       .  S
C1215      C1313   1.457       .  S
C1216      O1493   1.270       .  A
C1216      C1364   1.479       .  S
C1217      C1325   1.474       .  S
O1219      C1227   1.297       .  A
O1220      C1228   1.266       .  A
O1221      C1229   1.248       .  A
O1221     Co1241   1.960       .  S
O1222      C1230   1.286       .  A
O1222     Co1242   1.992       .  S
O1223      C1229   1.266       .  A
O1223     Co1240   2.036       .  S
O1224      C1230   1.301       .  A
O1224     Co1239   2.129       .  S
O1225      C1228   1.262       .  A
O1225     Co1242   1.970       .  S
O1226      C1227   1.281       .  A
O1226     Co1241   1.906       .  S
C1227      C1328   1.468       .  S
C1228      C1400   1.465       .  S
C1229      C1289   1.478       .  S
O1231      C1244   1.259       .  A
O1231     Co1239   2.003       .  S
O1232      C1245   1.267       .  A
O1232     Co1240   2.001       .  S
O1233      C1246   1.261       .  A
O1233     Co1241   1.962       .  S
O1234      C1247   1.281       .  A
O1234     Co1242   2.012       .  S
O1235      C1247   1.271       .  A
O1236     Co1239   1.958   1_455  S
O1237      C1244   1.254       .  A
O1237     Co1242   1.966       .  S
O1238      C1245   1.297       .  A
O1238     Co1241   2.102       .  S
Co1239     O1243   2.151       .  S
Co1242     O1243   1.971       .  S
C1244      C1280   1.466       .  S
C1246      C1412   1.464       .  S
C1247      C1340   1.472       .  S
O1248      C1256   1.309       .  A
O1248     Co1836   2.064       .  S
O1249      C1257   1.257       .  A
O1249     Co1837   1.984   1_545  S
O1250      C1258   1.306       .  A
O1250     Co1270   2.096       .  S
O1251      C1259   1.266       .  A
O1251     Co1271   1.985       .  S
O1252      C1258   1.273       .  A
O1252     Co1269   1.859       .  S
O1253      C1259   1.266       .  A
O1253     Co1268   1.986       .  S
O1254      C1257   1.269       .  A
O1254     Co1271   2.041       .  S
O1255      C1256   1.299       .  A
O1255     Co1270   2.036       .  S
C1257      C1388   1.496       .  S
C1258      C1301   1.474       .  S
C1259      C1277   1.492       .  S
O1260      C1273   1.288       .  A
O1260     Co1268   2.019       .  S
O1261      C1274   1.265       .  A
O1261     Co1269   1.956       .  S
O1262      C1275   1.274       .  A
O1262     Co1270   2.063       .  S
O1263      C1276   1.272       .  A
O1263     Co1271   2.002       .  S
O1264      C1276   1.298       .  A
O1264     Co1837   2.112   1_545  S
O1265      C1275   1.235       .  A
O1265     Co1836   1.935       .  S
O1266      C1273   1.270       .  A
O1266     Co1271   1.958       .  S
O1267      C1274   1.302       .  A
O1267     Co1270   2.080       .  S
Co1268     O1816   2.054   1_545  S
Co1268     O1833   1.962   1_545  S
Co1268     O1840   2.069       .  S
Co1269     O1817   1.973       .  S
Co1269     O1832   2.112       .  S
Co1269     O1272   1.890       .  S
Co1270     O1272   2.058       .  S
Co1271     O1840   2.031       .  S
O1272     Co1836   2.060       .  S
O1272     Co1839   2.025       .  S
C1273      C1316   1.470       .  S
C1274      C1292   1.483       .  S
C1275      C1376   1.478       .  S
C1277      C1278   1.411       .  A
C1277      C1282   1.415       .  A
C1278      C1279   1.390       .  A
C1278      H1287   1.083       .  S
C1279      C1280   1.401       .  A
C1279      S1283   1.804       .  S
C1280      C1281   1.407       .  A
C1281      C1282   1.412       .  A
C1281      H1288   1.083       .  S
C1282      S1284   1.805       .  S
S1283      H1286   1.407       .  S
S1284      H1285   1.408       .  S
C1289      C1290   1.403       .  A
C1289      C1294   1.410       .  A
C1290      C1291   1.404       .  A
C1290      H1299   1.082       .  S
C1291      C1292   1.411       .  A
C1291      S1295   1.806       .  S
C1292      C1293   1.406       .  A
C1293      C1294   1.409       .  A
C1293      H1300   1.083       .  S
C1294      S1296   1.805       .  S
S1295      H1298   1.407       .  S
S1296      H1297   1.407       .  S
C1301      C1302   1.400       .  A
C1301      C1306   1.415       .  A
C1302      C1303   1.393       .  A
C1302      H1311   1.083       .  S
C1303      C1304   1.406       .  A
C1303      S1307   1.791       .  S
C1304      C1305   1.401       .  A
C1305      C1306   1.396       .  A
C1305      H1312   1.084       .  S
C1306      S1308   1.802       .  S
S1307      H1310   1.407       .  S
S1308      H1309   1.408       .  S
C1313      C1314   1.400       .  A
C1313      C1318   1.400       .  A
C1314      C1315   1.398       .  A
C1314      H1323   1.084       .  S
C1315      C1316   1.407       .  A
C1315      S1319   1.793       .  S
C1316      C1317   1.402       .  A
C1317      C1318   1.388       .  A
C1317      H1324   1.083       .  S
C1318      S1320   1.789       .  S
S1319      H1322   1.405       .  S
S1320      H1321   1.407       .  S
C1325      C1326   1.404       .  A
C1325      C1330   1.411       .  A
C1326      C1327   1.397       .  A
C1326      H1335   1.083       .  S
C1327      C1328   1.404       .  A
C1327      S1331   1.801       .  S
C1328      C1329   1.403       .  A
C1329      C1330   1.401       .  A
C1329      H1336   1.083       .  S
C1330      S1332   1.799       .  S
S1331      H1334   1.407       .  S
S1332      H1333   1.406       .  S
C1337      C1338   1.401       .  A
C1337      C1342   1.415       .  A
C1338      C1339   1.400       .  A
C1338      H1347   1.082       .  S
C1339      C1340   1.413       .  A
C1339      S1343   1.807       .  S
C1340      C1341   1.401       .  A
C1341      C1342   1.402       .  A
C1341      H1348   1.083       .  S
C1342      S1344   1.808       .  S
S1343      H1346   1.406       .  S
S1344      H1345   1.407       .  S
C1349      C1350   1.400       .  A
C1349      C1638   1.412       .  A
C1350      C1351   1.388       .  A
C1350      H1359   1.084       .  S
C1351      C1352   1.404       .  A
C1351      S1355   1.789       .  S
C1352      C1637   1.400       .  A
C1353      C1636   1.392       .  A
C1353      C1354   1.392       .  A
C1353      H1360   1.083       .  S
C1354      C1633   1.413       .  A
C1354      S1356   1.794       .  S
S1355      H1358   1.405       .  S
S1356      H1357   1.404       .  S
C1361      C1646   1.395       .  A
C1361      C1366   1.409       .  A
C1362      C1645   1.402       .  A
C1362      C1363   1.402       .  A
C1362      H1371   1.082       .  S
C1363      C1648   1.410       .  A
C1363      S1367   1.807       .  S
C1364      C1647   1.417       .  A
C1364      C1365   1.404       .  A
C1365      C1366   1.402       .  A
C1365      H1372   1.080       .  S
C1366      S1368   1.806       .  S
S1367      H1370   1.407       .  S
S1368      H1369   1.407       .  S
C1373      C1374   1.390       .  A
C1373      C1946   1.425       .  A
C1374      C1375   1.395       .  A
C1374      H1383   1.084       .  S
C1375      C1376   1.424       .  A
C1375      S1379   1.801       .  S
C1376      C1945   1.399       .  A
C1377      C1944   1.401       .  A
C1377      C1378   1.410       .  A
C1377      H1384   1.083       .  S
C1378      C1941   1.417       .  A
C1378      S1380   1.806       .  S
S1379      H1382   1.408       .  S
S1380      H1381   1.407       .  S
C1385      C1386   1.406       .  A
C1385      C1958   1.422       .  A
C1386      C1387   1.418       .  A
C1386      H1395   1.083       .  S
C1387      C1388   1.413       .  A
C1387      S1391   1.793       .  S
C1388      C1957   1.397       .  A
C1389      C1956   1.396       .  A
C1389      C1390   1.406       .  A
C1389      H1396   1.083       .  S
C1390      C1953   1.419       .  A
C1390      S1392   1.792       .  S
S1391      H1394   1.407       .  S
S1392      H1393   1.408       .  S
C1397      C1398   1.415       .  A
C1397      C1402   1.417       .  A
C1398      C1399   1.403       .  A
C1398      H1407   1.082       .  S
C1399      C1400   1.404       .  A
C1399      S1403   1.807       .  S
C1400      C1401   1.401       .  A
C1401      C1402   1.383       .  A
C1401      H1408   1.083       .  S
C1402      S1404   1.816       .  S
S1403      H1406   1.407       .  S
S1404      H1405   1.407       .  S
C1409      C1410   1.394       .  A
C1409      C1414   1.404       .  A
C1410      C1411   1.386       .  A
C1410      H1419   1.081       .  S
C1411      C1412   1.420       .  A
C1411      S1415   1.814       .  S
C1412      C1413   1.406       .  A
C1413      C1414   1.394       .  A
S1415      H1418   1.407       .  S
S1416      H1417   1.407       .  S
C1421      C1422   1.537       .  S
C1421      C1427   1.544       .  S
C1421      C1425   1.551       .  S
C1421      C1540   1.577       .  S
C1422      H1429   1.076       .  S
C1422      C1423   1.370       .  D
C1423      C1424   1.589       .  S
C1423      C1482   1.547       .  S
C1424      C1428   1.607       .  S
C1424      C1426   1.601       .  S
C1424      H1430   1.110       .  S
C1425      H1431   1.086       .  S
C1425      C1426   1.382       .  D
C1426      C1456   1.564       .  S
C1427      H1432   1.086       .  S
C1427      C1428   1.374       .  D
C1428      C1514   1.557       .  S
C1433      C1434   1.566       .  S
C1433      C1439   1.532       .  S
C1433      C1437   1.561       .  S
C1433      C1560   1.590       .  S
C1434      H1441   1.086       .  S
C1434      C1435   1.376       .  D
C1435      C1436   1.581       .  S
C1435      C1529   1.545       .  S
C1436      C1440   1.580       .  S
C1436      C1438   1.585       .  S
C1436      H1442   1.110       .  S
C1437      H1443   1.086       .  S
C1437      C1438   1.390       .  D
C1438      C1471   1.560       .  S
C1439      H1444   1.087       .  S
C1439      C1440   1.371       .  D
C1440      C1502   1.526       .  S
O1445      C1453   1.260       .  A
O1446      C1454   1.279       .  A
O1447     Co2035   1.967   1_554  S
O1448      C1456   1.282       .  A
O1449      C1455   1.236       .  A
O1449     Co1466   2.027       .  S
O1450      C1456   1.288       .  A
O1450     Co2033   2.079       .  S
O1451      C1454   1.272       .  A
O1451     Co1468   1.971       .  S
O1452      C1453   1.272       .  A
O1452     Co2035   2.004       .  S
C1453      C1657   1.482       .  S
C1454      C1681   1.494       .  S
C1455      C1645   1.463       .  S
O1457      C1470   1.255       .  A
O1457     Co1465   1.934   1_545  S
O1458      C1471   1.285       .  A
O1458     Co2034   1.985       .  S
O1459      C1472   1.268       .  A
O1459     Co1467   2.058       .  S
O1460      C2041   1.268       .  A
O1460     Co1468   2.004       .  S
O1461      C2041   1.275       .  A
O1462     Co1465   1.931   1_445  S
O1463      C1470   1.276       .  A
O1463     Co1752   2.022   1_545  S
O1464      C1471   1.307       .  A
Co1465     O2018   2.006       .  S
Co1465     O2037   2.058       .  S
Co1466     O2026   2.035       .  S
Co1467     O2015   1.965   1_545  S
Co1467     O2020   2.088   1_545  S
Co1468     O1747   2.000       .  S
O1469     Co2033   1.925       .  S
C1470      C1633   1.460       .  S
C1472      C1693   1.505       .  S
C1473      O2028   1.264       .  A
C1473      O2029   1.278       .  A
C1473      C1669   1.493       .  S
O1474      C1482   1.311       .  A
O1474     Co1494   2.145       .  S
O1475      C1483   1.252       .  A
O1475     Co1495   1.997       .  S
O1476      C1484   1.266       .  A
O1477      C1485   1.266       .  A
O1478      C1484   1.276       .  A
O1478     Co1495   2.008       .  S
O1479      C1485   1.268       .  A
O1479     Co1494   1.978       .  S
O1480      C1483   1.244       .  A
O1480     Co1497   1.977       .  S
O1481      C1482   1.283       .  A
O1481     Co1496   1.942       .  S
C1483      C1621   1.482       .  S
C1484      C1588   1.465       .  S
C1485      C1636   1.459       .  S
O1486      C1499   1.279       .  A
O1486     Co1494   2.012       .  S
O1487      C1500   1.271       .  A
O1487     Co1495   1.980       .  S
O1488      C1501   1.239       .  A
O1488     Co1496   1.978       .  S
O1489      C1502   1.278       .  A
O1489     Co1497   1.923       .  S
O1490      C1502   1.309       .  A
O1490     Co1495   2.134       .  S
O1491      C1501   1.250       .  A
O1491     Co1494   1.990       .  S
O1492      C1499   1.263       .  A
O1493     Co1496   1.987   1_554  S
Co1494     O1498   2.165       .  S
Co1496     O1498   1.914       .  S
C1499      C1597   1.461       .  S
C1500      C1648   1.478       .  S
C1501      C1609   1.472       .  S
O1503      C1511   1.306       .  A
O1504      C1512   1.267       .  A
O1505      C1513   1.249       .  A
O1505     Co1525   1.964       .  S
O1506      C1514   1.288       .  A
O1506     Co1526   1.990       .  S
O1507      C1513   1.265       .  A
O1507     Co1524   2.030       .  S
O1508      C1514   1.297       .  A
O1508     Co1523   2.111       .  S
O1509      C1512   1.266       .  A
O1509     Co1526   1.987       .  S
O1510      C1511   1.276       .  A
O1510     Co1525   1.871       .  S
C1511      C1612   1.473       .  S
C1512      C1684   1.483       .  S
C1513      C1573   1.482       .  S
O1515      C1528   1.257       .  A
O1515     Co1523   2.004       .  S
O1516      C1529   1.272       .  A
O1516     Co1524   1.999       .  S
O1517      C1530   1.268       .  A
O1517     Co1525   1.953       .  S
O1518      C1531   1.283       .  A
O1518     Co1526   2.022       .  S
O1519      C1531   1.271       .  A
O1520     Co1523   1.959   1_455  S
O1521      C1528   1.253       .  A
O1521     Co1526   1.968       .  S
O1522      C1529   1.299       .  A
O1522     Co1525   2.101       .  S
Co1523     O1527   2.149       .  S
Co1526     O1527   1.981       .  S
C1528      C1564   1.469       .  S
C1530      C1696   1.501       .  S
C1531      C1624   1.477       .  S
O1532      C1540   1.305       .  A
O1532     Co2120   2.050       .  S
O1533      C1541   1.253       .  A
O1533     Co2121   1.976   1_545  S
O1534      C1542   1.305       .  A
O1534     Co1554   2.099       .  S
O1535      C1543   1.266       .  A
O1535     Co1555   1.990       .  S
O1536      C1542   1.268       .  A
O1536     Co1553   1.846       .  S
O1537      C1543   1.267       .  A
O1537     Co1552   1.992   1_545  S
O1538      C1541   1.271       .  A
O1538     Co1555   2.043       .  S
O1539      C1540   1.297       .  A
O1539     Co1554   2.026       .  S
C1541      C1672   1.489       .  S
C1542      C1585   1.466       .  S
C1543      C1561   1.501       .  S
O1544      C1557   1.290       .  A
O1544     Co1552   2.033   1_545  S
O1545      C1558   1.264       .  A
O1545     Co1553   1.954       .  S
O1546      C1559   1.274       .  A
O1546     Co1554   2.060       .  S
O1547      C1560   1.268       .  A
O1547     Co1555   1.998       .  S
O1548      C1560   1.298       .  A
O1548     Co2121   2.110   1_545  S
O1549      C1559   1.239       .  A
O1549     Co2120   1.951       .  S
O1550      C1557   1.265       .  A
O1550     Co1555   1.954       .  S
O1551      C1558   1.303       .  A
O1551     Co1554   2.085       .  S
Co1552     O2100   2.054       .  S
Co1552     O2117   1.944       .  S
Co1552     O2124   2.070   1_565  S
Co1553     O2101   1.970       .  S
Co1553     O2116   2.086       .  S
Co1553     O1556   1.890       .  S
Co1554     O1556   2.050       .  S
Co1555     O2124   2.021       .  S
O1556     Co2120   2.056       .  S
O1556     Co2123   2.031       .  S
C1557      C1600   1.467       .  S
C1558      C1576   1.485       .  S
C1559      C1660   1.482       .  S
C1561      C1562   1.413       .  A
C1561      C1566   1.418       .  A
C1562      C1563   1.391       .  A
C1562      H1571   1.083       .  S
C1563      C1564   1.402       .  A
C1563      S1567   1.805       .  S
C1564      C1565   1.407       .  A
C1565      C1566   1.410       .  A
C1565      H1572   1.084       .  S
C1566      S1568   1.799       .  S
S1567      H1570   1.407       .  S
S1568      H1569   1.406       .  S
C1573      C1574   1.405       .  A
C1573      C1578   1.413       .  A
C1574      C1575   1.406       .  A
C1574      H1583   1.081       .  S
C1575      C1576   1.412       .  A
C1575      S1579   1.805       .  S
C1576      C1577   1.405       .  A
C1577      C1578   1.406       .  A
C1577      H1584   1.084       .  S
C1578      S1580   1.801       .  S
S1579      H1582   1.407       .  S
S1580      H1581   1.405       .  S
C1585      C1586   1.393       .  A
C1585      C1590   1.413       .  A
C1586      C1587   1.390       .  A
C1586      H1595   1.083       .  S
C1587      C1588   1.410       .  A
C1587      S1591   1.786       .  S
C1588      C1589   1.400       .  A
C1589      C1590   1.394       .  A
C1589      H1596   1.084       .  S
C1590      S1592   1.801       .  S
S1591      H1594   1.408       .  S
S1592      H1593   1.408       .  S
C1597      C1598   1.407       .  A
C1597      C1602   1.403       .  A
C1598      C1599   1.405       .  A
C1598      H1607   1.083       .  S
C1599      C1600   1.406       .  A
C1599      S1603   1.799       .  S
C1600      C1601   1.401       .  A
C1601      C1602   1.383       .  A
C1601      H1608   1.083       .  S
C1602      S1604   1.793       .  S
S1603      H1606   1.407       .  S
S1604      H1605   1.408       .  S
C1609      C1610   1.398       .  A
C1609      C1614   1.415       .  A
C1610      C1611   1.398       .  A
C1610      H1619   1.083       .  S
C1611      C1612   1.407       .  A
C1611      S1615   1.797       .  S
C1612      C1613   1.402       .  A
C1613      C1614   1.407       .  A
C1613      H1620   1.081       .  S
C1614      S1616   1.806       .  S
S1615      H1618   1.406       .  S
S1616      H1617   1.407       .  S
C1621      C1622   1.402       .  A
C1621      C1626   1.415       .  A
C1622      C1623   1.403       .  A
C1622      H1631   1.082       .  S
C1623      C1624   1.413       .  A
C1623      S1627   1.808       .  S
C1624      C1625   1.401       .  A
C1625      C1626   1.405       .  A
C1625      H1632   1.083       .  S
C1626      S1628   1.808       .  S
S1627      H1630   1.406       .  S
S1628      H1629   1.407       .  S
C1633      C1634   1.393       .  A
C1634      C1635   1.391       .  A
C1634      H1643   1.085       .  S
C1635      C1636   1.409       .  A
C1635      S1639   1.781       .  S
C1637      C1638   1.395       .  A
C1637      H1644   1.083       .  S
C1638      S1640   1.804       .  S
S1639      H1642   1.405       .  S
S1640      H1641   1.406       .  S
C1645      C1650   1.404       .  A
C1646      C1647   1.396       .  A
C1646      H1655   1.083       .  S
C1647      S1651   1.806       .  S
C1648      C1649   1.404       .  A
C1649      C1650   1.400       .  A
C1649      H1656   1.080       .  S
C1650      S1652   1.803       .  S
S1651      H1654   1.407       .  S
S1652      H1653   1.407       .  S
C1657      C1658   1.394       .  A
C1657      C2230   1.416       .  A
C1658      C1659   1.396       .  A
C1658      H1667   1.084       .  S
C1659      C1660   1.419       .  A
C1659      S1663   1.800       .  S
C1660      C2229   1.403       .  A
C1661      C2228   1.397       .  A
C1661      C1662   1.409       .  A
C1661      H1668   1.083       .  S
C1662      C2225   1.426       .  A
C1662      S1664   1.807       .  S
S1663      H1666   1.408       .  S
S1664      H1665   1.408       .  S
C1669      C1670   1.400       .  A
C1669      C2242   1.422       .  A
C1670      C1671   1.410       .  A
C1670      H1679   1.083       .  S
C1671      C1672   1.413       .  A
C1671      S1675   1.787       .  S
C1672      C2241   1.395       .  A
C1673      C2240   1.401       .  A
C1673      C1674   1.413       .  A
C1673      H1680   1.082       .  S
C1674      C2237   1.418       .  A
C1674      S1676   1.794       .  S
S1675      H1678   1.407       .  S
S1676      H1677   1.407       .  S
C1681      C1682   1.416       .  A
C1681      C1686   1.420       .  A
C1682      C1683   1.413       .  A
C1682      H1691   1.082       .  S
C1683      C1684   1.408       .  A
C1683      S1687   1.805       .  S
C1684      C1685   1.402       .  A
C1685      C1686   1.389       .  A
C1685      H1692   1.082       .  S
C1686      S1688   1.815       .  S
S1687      H1690   1.407       .  S
S1688      H1689   1.406       .  S
C1693      C1694   1.403       .  A
C1693      C1698   1.428       .  A
C1694      C1695   1.418       .  A
C1694      H1703   1.076       .  S
C1695      C1696   1.423       .  A
C1695      S1699   1.807       .  S
C1696      C1697   1.399       .  A
C1697      C1698   1.396       .  A
S1699      H1702   1.406       .  S
S1700      H1701   1.406       .  S
C1705      C1706   1.544       .  S
C1705      C1711   1.542       .  S
C1705      C1709   1.552       .  S
C1705      C1824   1.586       .  S
C1706      H1713   1.075       .  S
C1706      C1707   1.373       .  D
C1707      C1708   1.593       .  S
C1707      C1766   1.558       .  S
C1708      C1712   1.606       .  S
C1708      C1710   1.591       .  S
C1708      H1714   1.110       .  S
C1709      H1715   1.086       .  S
C1709      C1710   1.382       .  D
C1710      C1740   1.553       .  S
C1711      H1716   1.086       .  S
C1711      C1712   1.375       .  D
C1712      C1798   1.555       .  S
C1717      C1718   1.565       .  S
C1717      C1723   1.542       .  S
C1717      C1721   1.563       .  S
C1717      C1844   1.592       .  S
C1718      H1725   1.086       .  S
C1718      C1719   1.370       .  D
C1719      C1720   1.589       .  S
C1719      C1813   1.553       .  S
C1720      C1724   1.598       .  S
C1720      C1722   1.598       .  S
C1720      H1726   1.110       .  S
C1721      H1727   1.086       .  S
C1721      C1722   1.390       .  D
C1722      C1755   1.576       .  S
C1723      H1728   1.087       .  S
C1723      C1724   1.373       .  D
C1724      C1786   1.549       .  S
O1729      C1737   1.255       .  A
O1730      C1738   1.282       .  A
O1731      C2023   1.253       .  A
O1732      C1740   1.277       .  A
O1732     Co2036   2.041       .  S
O1733      C1739   1.232       .  A
O1733     Co1750   2.015   1_565  S
O1734      C1740   1.287       .  A
O1735      C1738   1.278       .  A
O1735     Co1752   1.981   1_554  S
O1736      C1737   1.271       .  A
C1737      C1941   1.475       .  S
C1738      C1965   1.497       .  S
C1739      O2015   1.225   1_554  A
C1739      C1929   1.461       .  S
O1741      C1754   1.252       .  A
O1741     Co1749   1.933       .  S
O1742      C1755   1.288       .  A
O1743      C1756   1.268       .  A
O1743     Co1751   2.057       .  S
O1744     Co1752   1.990   1_544  S
O1746     Co1749   1.945   1_455  S
O1747      C1754   1.269       .  A
O1748      C1755   1.308       .  A
O1748     Co2035   2.144   1_554  S
Co1751     O2032   2.088       .  S
Co1752     O2016   2.069       .  S
Co1752     O2037   2.065       .  S
O1753     Co2036   2.052       .  S
C1754      C1917   1.450       .  S
C1756      C1977   1.505       .  S
C1757      C1953   1.490       .  S
O1758      C1766   1.308       .  A
O1758     Co1778   2.141       .  S
O1759      C1767   1.238       .  A
O1759     Co1779   2.014       .  S
O1760      C1768   1.246       .  A
O1760     Co2064   1.954   1_554  S
O1761      C1769   1.268       .  A
O1761     Co2065   1.875       .  S
O1762      C1768   1.299       .  A
O1762     Co1779   2.002       .  S
O1763      C1769   1.295       .  A
O1763     Co1778   2.052       .  S
O1764      C1767   1.234       .  A
O1764     Co1781   1.990       .  S
O1765      C1766   1.283       .  A
O1765     Co1780   1.961       .  S
C1767      C1905   1.467       .  S
C1768      C1872   1.483       .  S
C1769      C1920   1.453       .  S
O1770      C1783   1.261       .  A
O1770     Co1778   1.995       .  S
O1771      C1784   1.270       .  A
O1771     Co1779   2.027       .  S
O1772      C1785   1.240       .  A
O1772     Co1780   1.978       .  S
O1773      C1786   1.297       .  A
O1773     Co1781   2.045       .  S
O1774      C1786   1.291       .  A
O1774     Co1779   2.058       .  S
O1775      C1785   1.250       .  A
O1775     Co1778   1.979       .  S
O1776      C1783   1.239       .  A
O1776     Co2065   1.938       .  S
O1777      C2068   1.278       .  A
O1777     Co1780   1.996       .  S
Co1778     O1782   2.266       .  S
Co1779     O2066   2.222   1_554  S
Co1780     O2044   1.976       .  S
Co1780     O1782   1.921       .  S
Co1781     O2045   2.022   1_554  S
Co1781     O2060   1.964   1_554  S
Co1781     O2066   2.060   1_554  S
O1782     Co2063   2.084       .  S
O1782     Co2065   1.892       .  S
C1783      C1881   1.456       .  S
C1784      O2061   1.251       .  A
C1784      C1932   1.490       .  S
C1785      C1893   1.469       .  S
O1787      C1795   1.304       .  A
O1788      C1796   1.266       .  A
O1789      C1797   1.249       .  A
O1789     Co1809   1.954       .  S
O1790      C1798   1.285       .  A
O1790     Co1810   1.980       .  S
O1791      C1797   1.264       .  A
O1791     Co1808   2.016       .  S
O1792      C1798   1.298       .  A
O1792     Co1807   2.117       .  S
O1793      C1796   1.270       .  A
O1793     Co1810   2.005       .  S
O1794      C1795   1.279       .  A
O1794     Co1809   1.890       .  S
C1795      C1896   1.488       .  S
C1796      C1968   1.494       .  S
C1797      C1857   1.464       .  S
O1799      C1812   1.255       .  A
O1799     Co1807   1.995       .  S
O1800      C1813   1.272       .  A
O1800     Co1808   1.998       .  S
O1801      C1814   1.268       .  A
O1801     Co1809   1.950       .  S
O1802      C1815   1.279       .  A
O1802     Co1810   2.004       .  S
O1803      C1815   1.271       .  A
O1804     Co1807   1.952   1_455  S
O1805      C1812   1.256       .  A
O1805     Co1810   1.977       .  S
O1806      C1813   1.302       .  A
O1806     Co1809   2.115       .  S
Co1807     O1811   2.153       .  S
Co1810     O1811   1.976       .  S
C1812      C1848   1.469       .  S
C1814      C1980   1.501       .  S
C1815      C1908   1.460       .  S
O1816      C1824   1.304       .  A
O1817      C1825   1.251       .  A
O1818      C1826   1.297       .  A
O1818     Co1838   2.073       .  S
O1819      C1827   1.265       .  A
O1819     Co1839   1.988       .  S
O1820      C1826   1.279       .  A
O1820     Co1837   1.877       .  S
O1821      C1827   1.268       .  A
O1821     Co1836   1.995       .  S
O1822      C1825   1.271       .  A
O1822     Co1839   2.042       .  S
O1823      C1824   1.298       .  A
O1823     Co1838   2.036       .  S
C1825      C1956   1.488       .  S
C1826      C1869   1.459       .  S
C1827      C1845   1.501       .  S
O1828      C1841   1.291       .  A
O1828     Co1836   2.032       .  S
O1829      C1842   1.264       .  A
O1829     Co1837   1.965       .  S
O1830      C1843   1.271       .  A
O1830     Co1838   2.050       .  S
O1831      C1844   1.266       .  A
O1831     Co1839   1.993       .  S
O1832      C1844   1.295       .  A
O1833      C1843   1.239       .  A
O1834      C1841   1.263       .  A
O1834     Co1839   1.946       .  S
O1835      C1842   1.304       .  A
O1835     Co1838   2.083       .  S
Co1837     O1840   1.901   1_565  S
Co1838     O1840   2.054   1_565  S
C1841      C1884   1.466       .  S
C1842      C1860   1.488       .  S
C1843      C1944   1.477       .  S
C1845      C1846   1.412       .  A
C1845      C1850   1.418       .  A
C1846      C1847   1.390       .  A
C1846      H1855   1.083       .  S
C1847      C1848   1.401       .  A
C1847      S1851   1.804       .  S
C1848      C1849   1.407       .  A
C1849      C1850   1.411       .  A
C1849      H1856   1.084       .  S
C1850      S1852   1.801       .  S
S1851      H1854   1.408       .  S
S1852      H1853   1.405       .  S
C1857      C1858   1.406       .  A
C1857      C1862   1.401       .  A
C1858      C1859   1.411       .  A
C1858      H1867   1.082       .  S
C1859      C1860   1.415       .  A
C1859      S1863   1.806       .  S
C1860      C1861   1.399       .  A
C1861      C1862   1.394       .  A
C1861      H1868   1.076       .  S
C1862      S1864   1.808       .  S
S1863      H1866   1.407       .  S
S1864      H1865   1.407       .  S
C1869      C1870   1.386       .  A
C1869      C1874   1.391       .  A
C1870      C1871   1.390       .  A
C1870      H1879   1.062       .  S
C1871      C1872   1.413       .  A
C1871      S1875   1.785       .  S
C1872      C1873   1.419       .  A
C1873      C1874   1.401       .  A
C1873      H1880   1.081       .  S
C1874      S1876   1.798       .  S
S1875      H1878   1.408       .  S
S1876      H1877   1.406       .  S
C1881      C1882   1.403       .  A
C1881      C1886   1.401       .  A
C1882      C1883   1.394       .  A
C1882      H1891   1.084       .  S
C1883      C1884   1.405       .  A
C1883      S1887   1.789       .  S
C1884      C1885   1.405       .  A
C1885      C1886   1.387       .  A
C1885      H1892   1.083       .  S
C1886      S1888   1.797       .  S
S1887      H1890   1.405       .  S
S1888      H1889   1.406       .  S
C1893      C1894   1.389       .  A
C1893      C1898   1.413       .  A
C1894      C1895   1.390       .  A
C1894      H1903   1.084       .  S
C1895      C1896   1.406       .  A
C1895      S1899   1.772       .  S
C1896      C1897   1.405       .  A
C1897      C1898   1.411       .  A
C1897      H1904   1.079       .  S
C1898      S1900   1.799       .  S
S1899      H1902   1.406       .  S
S1900      H1901   1.406       .  S
C1905      C1906   1.405       .  A
C1905      C1910   1.408       .  A
C1906      C1907   1.397       .  A
C1906      H1915   1.084       .  S
C1907      C1908   1.406       .  A
C1907      S1911   1.803       .  S
C1908      C1909   1.402       .  A
C1909      C1910   1.398       .  A
C1909      H1916   1.084       .  S
C1910      S1912   1.804       .  S
S1911      H1914   1.407       .  S
S1912      H1913   1.406       .  S
C1917      C1918   1.391       .  A
C1917      C2206   1.411       .  A
C1918      C1919   1.384       .  A
C1918      H1927   1.085       .  S
C1919      C1920   1.407       .  A
C1919      S1923   1.783       .  S
C1920      C2205   1.393       .  A
C1921      C2204   1.400       .  A
C1921      C1922   1.396       .  A
C1921      H1928   1.077       .  S
C1922      C2201   1.413       .  A
C1922      S1924   1.806       .  S
S1923      H1926   1.407       .  S
S1924      H1925   1.406       .  S
C1929      C2214   1.408       .  A
C1929      C1934   1.398       .  A
C1930      C2213   1.401       .  A
C1930      C1931   1.402       .  A
C1930      H1939   1.083       .  S
C1931      C2216   1.419       .  A
C1931      S1935   1.807       .  S
C1932      C2215   1.413       .  A
C1932      C1933   1.411       .  A
C1933      C1934   1.380       .  A
C1933      H1940   1.082       .  S
C1934      S1936   1.809       .  S
S1935      H1938   1.407       .  S
S1936      H1937   1.407       .  S
C1941      C1942   1.392       .  A
C1942      C1943   1.393       .  A
C1942      H1951   1.084       .  S
C1943      C1944   1.418       .  A
C1943      S1947   1.799       .  S
C1945      C1946   1.411       .  A
C1945      H1952   1.083       .  S
C1946      S1948   1.806       .  S
S1947      H1950   1.408       .  S
S1948      H1949   1.408       .  S
C1953      C1954   1.398       .  A
C1954      C1955   1.406       .  A
C1954      H1963   1.083       .  S
C1955      C1956   1.415       .  A
C1955      S1959   1.788       .  S
C1957      C1958   1.405       .  A
C1957      H1964   1.083       .  S
C1958      S1960   1.801       .  S
S1959      H1962   1.407       .  S
S1960      H1961   1.407       .  S
C1965      C1966   1.418       .  A
C1965      C1970   1.415       .  A
C1966      C1967   1.413       .  A
C1966      H1975   1.083       .  S
C1967      C1968   1.412       .  A
C1967      S1971   1.799       .  S
C1968      C1969   1.406       .  A
C1969      C1970   1.388       .  A
C1969      H1976   1.083       .  S
C1970      S1972   1.810       .  S
S1971      H1974   1.406       .  S
S1972      H1973   1.406       .  S
C1977      C1978   1.403       .  A
C1977      C1982   1.429       .  A
C1978      C1979   1.417       .  A
C1978      H1987   1.079       .  S
C1979      C1980   1.422       .  A
C1979      S1983   1.804       .  S
C1980      C1981   1.400       .  A
C1981      C1982   1.397       .  A
S1983      H1986   1.407       .  S
S1984      H1985   1.406       .  S
C1989      C1990   1.529       .  S
C1989      C1995   1.548       .  S
C1989      C1993   1.545       .  S
C1989      C2108   1.581       .  S
C1990      H1997   1.079       .  S
C1990      C1991   1.372       .  D
C1991      C1992   1.574       .  S
C1991      C2050   1.523       .  S
C1992      C1996   1.600       .  S
C1992      C1994   1.585       .  S
C1992      H1998   1.110       .  S
C1993      H1999   1.086       .  S
C1993      C1994   1.384       .  D
C1994      C2024   1.548       .  S
C1995      H2000   1.086       .  S
C1995      C1996   1.381       .  D
C1996      C2082   1.551       .  S
C2001      C2002   1.550       .  S
C2001      C2007   1.547       .  S
C2001      C2005   1.562       .  S
C2001      C2128   1.580       .  S
C2002      H2009   1.086       .  S
C2002      C2003   1.361       .  D
C2003      C2004   1.566       .  S
C2003      C2097   1.511       .  S
C2004      C2008   1.564       .  S
C2004      C2006   1.588       .  S
C2004      H2010   1.110       .  S
C2005      H2011   1.085       .  S
C2005      C2006   1.388       .  D
C2006      C2039   1.562       .  S
C2007      H2012   1.086       .  S
C2007      C2008   1.381       .  D
C2008      C2070   1.523       .  S
O2013      C2021   1.271       .  A
O2014      C2022   1.273       .  A
O2016      C2024   1.280       .  A
O2017      C2023   1.258       .  A
O2017     Co2034   1.992   1_565  S
O2018      C2024   1.261       .  A
O2019      C2022   1.269       .  A
O2019     Co2036   1.945       .  S
O2020      C2021   1.306       .  A
C2021      C2225   1.489       .  S
C2022      C2249   1.461       .  S
C2023      C2213   1.466       .  S
O2025      C2038   1.252       .  A
O2025     Co2033   1.962       .  S
O2026      C2039   1.304       .  A
O2027      C2040   1.295       .  A
O2027     Co2035   2.041       .  S
O2028     Co2036   1.979   1_545  S
O2030     Co2033   1.902   1_455  S
O2031      C2038   1.264       .  A
O2032      C2039   1.317       .  A
C2038      C2201   1.463       .  S
C2040      C2261   1.453       .  S
C2041      C2237   1.498       .  S
O2042      C2050   1.263       .  A
O2042     Co2062   2.038       .  S
O2043      C2051   1.266       .  A
O2043     Co2063   2.005       .  S
O2044      C2052   1.267       .  A
O2045      C2053   1.271       .  A
O2046      C2052   1.271       .  A
O2046     Co2063   1.991       .  S
O2047      C2053   1.254       .  A
O2047     Co2062   1.954       .  S
O2048      C2051   1.258       .  A
O2048     Co2065   1.979       .  S
O2049      C2050   1.262       .  A
O2049     Co2064   2.010       .  S
C2051      C2189   1.476       .  S
C2052      C2156   1.464       .  S
C2053      C2204   1.466       .  S
O2054      C2067   1.274       .  A
O2054     Co2062   2.012       .  S
O2055      C2068   1.273       .  A
O2055     Co2063   1.986       .  S
O2056      C2069   1.257       .  A
O2056     Co2064   1.960       .  S
O2057      C2070   1.270       .  A
O2057     Co2065   2.022       .  S
O2058      C2070   1.281       .  A
O2058     Co2063   2.052       .  S
O2059      C2069   1.273       .  A
O2059     Co2062   2.012       .  S
O2060      C2067   1.262       .  A
O2061     Co2064   1.984   1_554  S
Co2062     O2066   2.083       .  S
Co2064     O2066   2.160       .  S
C2067      C2165   1.470       .  S
C2068      C2216   1.483       .  S
C2069      C2177   1.476       .  S
O2071      C2079   1.307       .  A
O2072      C2080   1.263       .  A
O2073      C2081   1.245       .  A
O2073     Co2093   1.955       .  S
O2074      C2082   1.282       .  A
O2074     Co2094   1.980       .  S
O2075      C2081   1.265       .  A
O2075     Co2092   2.038       .  S
O2076      C2082   1.298       .  A
O2076     Co2091   2.117       .  S
O2077      C2080   1.259       .  A
O2077     Co2094   1.959       .  S
O2078      C2079   1.274       .  A
O2078     Co2093   1.864       .  S
C2079      C2180   1.476       .  S
C2080      C2252   1.456       .  S
C2081      C2141   1.478       .  S
O2083      C2096   1.260       .  A
O2083     Co2091   2.005       .  S
O2084      C2097   1.263       .  A
O2084     Co2092   1.968       .  S
O2085      C2098   1.256       .  A
O2085     Co2093   1.913       .  S
O2086      C2099   1.277       .  A
O2086     Co2094   2.005       .  S
O2087      C2099   1.268       .  A
O2088     Co2091   1.956   1_455  S
O2089      C2096   1.255       .  A
O2089     Co2094   1.958       .  S
O2090      C2097   1.295       .  A
O2090     Co2093   2.078       .  S
Co2091     O2095   2.141       .  S
Co2094     O2095   1.961       .  S
C2096      C2132   1.463       .  S
C2098      C2264   1.465       .  S
C2099      C2192   1.461       .  S
O2100      C2108   1.307       .  A
O2101      C2109   1.249       .  A
O2102      C2110   1.302       .  A
O2102     Co2122   2.079       .  S
O2103      C2111   1.263       .  A
O2103     Co2123   1.979       .  S
O2104      C2110   1.277       .  A
O2104     Co2121   1.875       .  S
O2105      C2111   1.265       .  A
O2105     Co2120   1.991       .  S
O2106      C2109   1.273       .  A
O2106     Co2123   2.058       .  S
O2107      C2108   1.296       .  A
O2107     Co2122   2.029       .  S
C2109      C2240   1.500       .  S
C2110      C2153   1.478       .  S
C2111      C2129   1.494       .  S
O2112      C2125   1.290       .  A
O2112     Co2120   2.026       .  S
O2113      C2126   1.263       .  A
O2113     Co2121   1.956       .  S
O2114      C2127   1.272       .  A
O2114     Co2122   2.053       .  S
O2115      C2128   1.273       .  A
O2115     Co2123   2.002       .  S
O2116      C2128   1.286       .  A
O2117      C2127   1.237       .  A
O2118      C2125   1.276       .  A
O2118     Co2123   1.976       .  S
O2119      C2126   1.303       .  A
O2119     Co2122   2.084       .  S
Co2121     O2124   1.895   1_565  S
Co2122     O2124   2.044   1_565  S
C2125      C2168   1.486       .  S
C2126      C2144   1.485       .  S
C2127      C2228   1.477       .  S
C2129      C2130   1.411       .  A
C2129      C2134   1.415       .  A
C2130      C2131   1.387       .  A
C2130      H2139   1.084       .  S
C2131      C2132   1.401       .  A
C2131      S2135   1.804       .  S
C2132      C2133   1.406       .  A
C2133      C2134   1.412       .  A
C2133      H2140   1.083       .  S
C2134      S2136   1.805       .  S
S2135      H2138   1.407       .  S
S2136      H2137   1.408       .  S
C2141      C2142   1.403       .  A
C2141      C2146   1.410       .  A
C2142      C2143   1.403       .  A
C2142      H2151   1.082       .  S
C2143      C2144   1.412       .  A
C2143      S2147   1.806       .  S
C2144      C2145   1.406       .  A
C2145      C2146   1.410       .  A
C2145      H2152   1.083       .  S
C2146      S2148   1.806       .  S
S2147      H2150   1.407       .  S
S2148      H2149   1.406       .  S
C2153      C2154   1.403       .  A
C2153      C2158   1.413       .  A
C2154      C2155   1.393       .  A
C2154      H2163   1.082       .  S
C2155      C2156   1.411       .  A
C2155      S2159   1.800       .  S
C2156      C2157   1.401       .  A
C2157      C2158   1.396       .  A
C2157      H2164   1.084       .  S
C2158      S2160   1.796       .  S
S2159      H2162   1.406       .  S
S2160      H2161   1.407       .  S
C2165      C2166   1.405       .  A
C2165      C2170   1.402       .  A
C2166      C2167   1.407       .  A
C2166      H2175   1.083       .  S
C2167      C2168   1.411       .  A
C2167      S2171   1.802       .  S
C2168      C2169   1.403       .  A
C2169      C2170   1.394       .  A
C2169      H2176   1.082       .  S
C2170      S2172   1.788       .  S
S2171      H2174   1.407       .  S
S2172      H2173   1.406       .  S
C2177      C2178   1.398       .  A
C2177      C2182   1.416       .  A
C2178      C2179   1.387       .  A
C2178      H2187   1.085       .  S
C2179      C2180   1.411       .  A
C2179      S2183   1.791       .  S
C2180      C2181   1.401       .  A
C2181      C2182   1.405       .  A
C2181      H2188   1.082       .  S
C2182      S2184   1.796       .  S
S2183      H2186   1.406       .  S
S2184      H2185   1.407       .  S
C2189      C2190   1.409       .  A
C2189      C2194   1.414       .  A
C2190      C2191   1.400       .  A
C2190      H2199   1.083       .  S
C2191      C2192   1.402       .  A
C2191      S2195   1.807       .  S
C2192      C2193   1.400       .  A
C2193      C2194   1.399       .  A
C2193      H2200   1.083       .  S
C2194      S2196   1.807       .  S
S2195      H2198   1.406       .  S
S2196      H2197   1.406       .  S
C2201      C2202   1.401       .  A
C2202      C2203   1.394       .  A
C2202      H2211   1.083       .  S
C2203      C2204   1.398       .  A
C2203      S2207   1.785       .  S
C2205      C2206   1.393       .  A
C2205      H2212   1.080       .  S
C2206      S2208   1.798       .  S
S2207      H2210   1.406       .  S
S2208      H2209   1.403       .  S
C2213      C2218   1.408       .  A
C2214      C2215   1.415       .  A
C2214      H2223   1.082       .  S
C2215      S2219   1.804       .  S
C2216      C2217   1.406       .  A
C2217      C2218   1.391       .  A
C2217      H2224   1.082       .  S
C2218      S2220   1.811       .  S
S2219      H2222   1.407       .  S
S2220      H2221   1.407       .  S
C2225      C2226   1.393       .  A
C2226      C2227   1.398       .  A
C2226      H2235   1.083       .  S
C2227      C2228   1.420       .  A
C2227      S2231   1.801       .  S
C2229      C2230   1.412       .  A
C2229      H2236   1.083       .  S
C2230      S2232   1.805       .  S
S2231      H2234   1.408       .  S
S2232      H2233   1.407       .  S
C2237      C2238   1.402       .  A
C2238      C2239   1.410       .  A
C2238      H2247   1.083       .  S
C2239      C2240   1.418       .  A
C2239      S2243   1.798       .  S
C2241      C2242   1.403       .  A
C2241      H2248   1.083       .  S
C2242      S2244   1.797       .  S
S2243      H2246   1.407       .  S
S2244      H2245   1.408       .  S
C2249      C2250   1.412       .  A
C2249      C2254   1.414       .  A
C2250      C2251   1.398       .  A
C2250      H2259   1.082       .  S
C2251      C2252   1.404       .  A
C2251      S2255   1.808       .  S
C2252      C2253   1.401       .  A
C2253      C2254   1.374       .  A
C2253      H2260   1.083       .  S
C2254      S2256   1.815       .  S
S2255      H2258   1.407       .  S
S2256      H2257   1.407       .  S
C2261      C2262   1.398       .  A
C2261      C2266   1.402       .  A
C2262      C2263   1.394       .  A
C2262      H2271   1.080       .  S
C2263      C2264   1.411       .  A
C2263      S2267   1.808       .  S
C2264      C2265   1.407       .  A
C2265      C2266   1.391       .  A
S2267      H2270   1.407       .  S
S2268      H2269   1.407       .  S
