geometry optimzed in LAMMPS
_audit_creation_date              2020-12-01 
_audit_creation_method            'lammps2cif' 
_symmetry_space_group_name_H-M    'P1' 
_symmetry_Int_Tables_number       1 
_symmetry_cell_setting            triclinic 
loop_ 
_symmetry_equiv_pos_as_xyz 
  x,y,z 
_cell_length_a                    45.0273146 
_cell_length_b                    44.9734429140718 
_cell_length_c                    44.87582501958396 
_cell_angle_alpha                 90.07166133057406 
_cell_angle_beta                  90.08052924198243 
_cell_angle_gamma                 89.59403822440574 
loop_ 
_atom_site_label 
_atom_site_type_symbol 
_atom_site_fract_x 
_atom_site_fract_y 
_atom_site_fract_z 
_atom_site_charge 
C1          C  0.32801993  0.34290398  0.33842358     0.46100
H2          H  0.31488026  0.32836994  0.32340185    -0.02900
C3          C  0.35887792  0.37688640  0.37313206     0.46100
H4          H  0.37202488  0.39160192  0.38796834    -0.02900
C5          C  0.34982823  0.36301822  0.32156019    -0.16600
C6          C  0.30882161  0.36401009  0.35757217    -0.16400
C7          C  0.34728966  0.32557428  0.36094295    -0.16800
C8          C  0.36646350  0.38064133  0.34005207    -0.16700
C9          C  0.32525320  0.38244413  0.37545789    -0.16300
C10         C  0.36363917  0.34360643  0.37937717    -0.16600
C11         C  0.36946285  0.14677626  0.37339300     0.46100
H12         H  0.38365219  0.13308007  0.38838655    -0.02900
C13         C  0.33616244  0.17868762  0.33853903     0.46100
H14         H  0.32164593  0.19228859  0.32376893    -0.02900
C15         C  0.33633211  0.13981683  0.37627928    -0.16600
C16         C  0.37201907  0.18031065  0.37915138    -0.16400
C17         C  0.37673484  0.14249264  0.34025834    -0.16800
C18         C  0.31873829  0.15685218  0.35804508    -0.16700
C19         C  0.35460744  0.19727737  0.36053159    -0.16300
C20         C  0.35914333  0.15946977  0.32175496    -0.16600
C21         C  0.17289611  0.16622259  0.33167417     0.46100
H22         H  0.18637500  0.18087413  0.31714319    -0.02900
C23         C  0.14150760  0.13199446  0.36574947     0.46100
H24         H  0.12814302  0.11742422  0.38046910    -0.02900
C25         C  0.15331709  0.14411425  0.31444155    -0.16600
C26         C  0.19162895  0.14672025  0.35273163    -0.16400
C27         C  0.15134122  0.18332173  0.35212344    -0.16800
C28         C  0.13700377  0.12584279  0.33243895    -0.16700
C29         C  0.17506849  0.12886999  0.37091332    -0.16300
C30         C  0.13451044  0.16525301  0.36980534    -0.16600
C31         C  0.12857704  0.36127992  0.36738659     0.46100
H32         H  0.11282893  0.37403188  0.38163283    -0.02900
C33         C  0.16544357  0.33075342  0.33489617     0.46100
H34         H  0.18101003  0.31749110  0.32091556    -0.02900
C35         C  0.16123115  0.36934179  0.37290531    -0.16600
C36         C  0.12663989  0.32770518  0.37222976    -0.16400
C37         C  0.12373478  0.36576227  0.33382017    -0.16800
C38         C  0.18081750  0.35335924  0.35550402    -0.16700
C39         C  0.14598881  0.31150315  0.35527442    -0.16300
C40         C  0.14332899  0.34963294  0.31660131    -0.16600
C41         C  0.17150457  0.33061729  0.17081714     0.46100
H42         H  0.18631594  0.31709767  0.18535753    -0.02900
C43         C  0.13725343  0.36273650  0.13718150     0.46100
H44         H  0.12257624  0.37658085  0.12281124    -0.02900
C45         C  0.14836976  0.34902206  0.18825483    -0.16600
C46         C  0.18839167  0.35338259  0.15167488    -0.16400
C47         C  0.15323889  0.31209874  0.14844610    -0.16800
C48         C  0.13023156  0.36592434  0.17040076    -0.16700
C49         C  0.17014870  0.37042935  0.13395580    -0.16300
C50         C  0.13537942  0.32934330  0.13046882    -0.16600
C51         C  0.36662290  0.37650591  0.14216837     0.46100
H52         H  0.38027308  0.39185631  0.12857712    -0.02900
C53         C  0.33485443  0.34122122  0.17444804     0.46100
H54         H  0.32123149  0.32608231  0.18832008    -0.02900
C55         C  0.33310349  0.38106053  0.13789253    -0.16600
C56         C  0.37241586  0.34355938  0.13530294    -0.16400
C57         C  0.37226612  0.37998320  0.17569027    -0.16800
C58         C  0.31622179  0.36214040  0.15467681    -0.16700
C59         C  0.35597312  0.32477849  0.15282401    -0.16300
C60         C  0.35491164  0.36188990  0.19289166    -0.16600
C61         C  0.15068176  0.13103539  0.13436137     0.46100
H62         H  0.13862016  0.11647792  0.11858055    -0.02900
C63         C  0.17862402  0.16602033  0.17065530     0.46100
H64         H  0.19083502  0.18069121  0.18632500    -0.02900
C65         C  0.18457763  0.12751287  0.13289463    -0.16600
C66         C  0.14441170  0.16430655  0.12873969    -0.16400
C67         C  0.14261866  0.12561581  0.16719165    -0.16800
C68         C  0.19933828  0.14617409  0.15191435    -0.16700
C69         C  0.15940916  0.18295310  0.14780492    -0.16300
C70         C  0.15754885  0.14418329  0.18631016    -0.16600
C71         C  0.34344992  0.17925915  0.17455790     0.46100
H72         H  0.32870679  0.19378157  0.18818138    -0.02900
C73         C  0.37769661  0.14536476  0.14268260     0.46100
H74         H  0.39238625  0.13079933  0.12904650    -0.02900
C75         C  0.36446684  0.15962921  0.19324461    -0.16600
C76         C  0.32648768  0.15736702  0.15464140    -0.16400
C77         C  0.36365806  0.19658778  0.15318261    -0.16800
C78         C  0.38282204  0.14191140  0.17632370    -0.16700
C79         C  0.34458868  0.13942926  0.13772977    -0.16300
C80         C  0.38161182  0.17855901  0.13614237    -0.16600
O81         O  0.03983833  0.02945641  0.17035650    -0.72300
O82         O  0.47265790  0.47541419  0.17201455    -0.73300
O83         O  0.47707769  0.03927040  0.17408942    -0.61900
O84         O  0.03339684  0.46823205  0.17176495    -0.70300
O85         O  0.03795788  0.46891751  0.22103603    -0.69900
O86         O  0.47757197  0.03897688  0.22357448    -0.61100
O87         O  0.47511395  0.47435905  0.22144215    -0.73600
O88         O  0.04222203  0.03184122  0.21972795    -0.72400
Cu89       Cu  0.00572048  0.00193449  0.17080701     1.04600
Cu90       Cu  0.00894077  0.00175050  0.22361761     1.04300
C91         C  0.05169227  0.03964048  0.19402900     0.93900
C92         C  0.46384138  0.46517317  0.19693384     0.93000
C93         C  0.46845408  0.05006346  0.19896147     0.85200
C94         C  0.04459585  0.45768072  0.19566218     0.91400
O95         O  0.47674157  0.04137916  0.34152910    -0.72300
O96         O  0.03082880  0.46950771  0.33888550    -0.73300
O97         O  0.03709088  0.02945702  0.33774194    -0.61900
O98         O  0.46989828  0.47607056  0.34120903    -0.70300
O99         O  0.46629709  0.47530718  0.29183861    -0.69900
O100        O  0.03212237  0.03355414  0.28867012    -0.61100
O101        O  0.02972677  0.47071472  0.28942147    -0.73600
O102        O  0.47058365  0.04011395  0.29246254    -0.72400
Cu103      Cu  0.00268962  0.00213010  0.34109110     1.04600
Cu104      Cu  0.99835259  0.00400629  0.28839011     1.04300
C105        C  0.46481976  0.05172753  0.31783988     0.93900
C106        C  0.03888127  0.45896698  0.31375168     0.93000
C107        C  0.04542951  0.04035153  0.31291941     0.85200
C108        C  0.45782705  0.46626759  0.31742855     0.91400
O109        O  0.21326958  0.46552223  0.46861780    -0.72300
O110        O  0.22574168  0.02808471  0.03162242    -0.73300
O111        O  0.21734154  0.46392162  0.03166085    -0.61900
O112        O  0.22139625  0.02809766  0.46814359    -0.70300
O113        O  0.17307642  0.03616259  0.47414708    -0.69900
O114        O  0.16858033  0.47118317  0.03358307    -0.61100
O115        O  0.17689373  0.03432171  0.03523635    -0.73600
O116        O  0.16489007  0.47497072  0.47118645    -0.72400
Cu117      Cu  0.22095209  0.99653760  0.99978849     1.04600
Cu118      Cu  0.16889210  0.00452421  0.00313076     1.04300
C119        C  0.18672841  0.46055454  0.45993630     0.93900
C120        C  0.20320908  0.04084115  0.04344421     0.93000
C121        C  0.19199278  0.45808574  0.04303797     0.85200
C122        C  0.19766129  0.04259285  0.46173077     0.91400
O123        O  0.03474441  0.16894494  0.46843497    -0.72300
O124        O  0.47921441  0.17020127  0.03581313    -0.73300
O125        O  0.47323436  0.17534224  0.47353355    -0.61900
O126        O  0.04174338  0.16639302  0.03115277    -0.70300
O127        O  0.04383974  0.21559887  0.03486508    -0.69900
O128        O  0.47770503  0.22443860  0.47162542    -0.61100
O129        O  0.48123626  0.21952035  0.03673912    -0.73600
O130        O  0.04154045  0.21772321  0.47105263    -0.72400
Cu131      Cu  0.00763173  0.16798459  0.00280278     1.04600
Cu132      Cu  0.01140870  0.22059471  0.00413663     1.04300
C133        C  0.04719431  0.19250218  0.45903108     0.93900
C134        C  0.47031629  0.19511793  0.04623714     0.93000
C135        C  0.46455746  0.20054920  0.46370651     0.85200
C136        C  0.05325388  0.18976752  0.04227993     0.91400
O137        O  0.28773244  0.04580139  0.47760739    -0.72300
O138        O  0.28572462  0.48038760  0.03982960    -0.73300
O139        O  0.29040357  0.04383456  0.04048976    -0.61900
O140        O  0.28177731  0.48258503  0.47596733    -0.70300
O141        O  0.33087526  0.47812788  0.47391588    -0.69900
O142        O  0.33933995  0.03784938  0.03850422    -0.61100
O143        O  0.33484426  0.47608996  0.03708788    -0.73600
O144        O  0.33661948  0.03949922  0.47512358    -0.72400
Cu145      Cu  0.28424181  0.01233782  0.00863866     1.04600
Cu146      Cu  0.33672576  0.00700636  0.00677574     1.04300
C147        C  0.31282988  0.05215903  0.46601942     0.93900
C148        C  0.31015056  0.46878200  0.04876774     0.93000
C149        C  0.31644833  0.05035283  0.04977525     0.85200
C150        C  0.30515513  0.47089111  0.46456959     0.91400
O151        O  0.02692513  0.28325984  0.47023364    -0.72300
O152        O  0.46916826  0.29286989  0.03743735    -0.73300
O153        O  0.46450616  0.29244532  0.47422716    -0.61900
O154        O  0.03284426  0.28861640  0.03439585    -0.70300
O155        O  0.03604420  0.33785041  0.03292078    -0.69900
O156        O  0.46870671  0.34161333  0.47349638    -0.61100
O157        O  0.47428612  0.34190762  0.03532376    -0.73600
O158        O  0.03097680  0.33247008  0.46882207    -0.72400
Cu159      Cu  0.99948398  0.28913452  0.00414018     1.04600
Cu160      Cu  0.00322596  0.34182863  0.00343954     1.04300
C161        C  0.03856377  0.30672259  0.45947515     0.93900
C162        C  0.46211319  0.31893317  0.04652758     0.93000
C163        C  0.45577334  0.31796494  0.46493116     0.85200
C164        C  0.04523762  0.31276485  0.04264990     0.91400
C165        C  0.34878172  0.08831623  0.11722569    -0.20700
C166        C  0.33453909  0.11609976  0.11656782    -0.08700
C167        C  0.31276159  0.12163187  0.09459512     0.30100
C168        C  0.30552172  0.09951424  0.07380178    -0.20700
C169        C  0.32077693  0.07219671  0.07388692    -0.08700
C170        C  0.34228696  0.06670962  0.09596500     0.30100
F171        F  0.35733098  0.04048018  0.09680103    -0.19300
H172        H  0.36549295  0.08351081  0.13397247     0.18500
H173        H  0.28922445  0.10430348  0.05665155     0.18500
F174        F  0.29982921  0.14884476  0.09201974    -0.19200
C175        C  0.40006067  0.17271337  0.08482208    -0.20700
C176        C  0.40197713  0.18787772  0.11203578    -0.08700
C177        C  0.42537772  0.20798732  0.11666114     0.30100
C178        C  0.44716193  0.21170124  0.09456901    -0.20700
C179        C  0.44600596  0.19492555  0.06815912    -0.08700
C180        C  0.42188635  0.17591834  0.06323611     0.30100
F181        F  0.41974266  0.15986927  0.03767350    -0.19300
H182        H  0.38209927  0.15731103  0.08072530     0.18500
H183        H  0.46575054  0.22626674  0.09875841     0.18500
F184        F  0.42834174  0.22233323  0.14309858    -0.19200
C185        C  0.43421891  0.12235429  0.17465954    -0.20700
C186        C  0.40590998  0.12099877  0.18750218    -0.08700
C187        C  0.39940354  0.09766589  0.20734086     0.30100
C188        C  0.42072704  0.07541917  0.21301975    -0.20700
C189        C  0.44828472  0.07594461  0.19841267    -0.08700
C190        C  0.45515175  0.10001850  0.17987202     0.30100
F191        F  0.48185840  0.10134825  0.16593523    -0.19300
H192        H  0.43969254  0.14018812  0.15944981     0.18500
H193        H  0.41501164  0.05680115  0.22713806     0.18500
F194        F  0.37188885  0.09506213  0.21930696    -0.19200
C195        C  0.24493788  0.17675163  0.14897172    -0.20700
C196        C  0.23193007  0.14889595  0.15368305    -0.08700
C197        C  0.25003530  0.12443095  0.16098555     0.30100
C198        C  0.28080951  0.12741027  0.16160990    -0.20700
C199        C  0.29387285  0.15493679  0.15558074    -0.08700
C200        C  0.27576413  0.17986272  0.15009562     0.30100
F201        F  0.28791661  0.20686506  0.14471880    -0.19300
H202        H  0.23119290  0.19598169  0.14395008     0.18500
H203        H  0.29452444  0.10825492  0.16696120     0.18500
F204        F  0.23805452  0.09801060  0.16864359    -0.19200
C205        C  0.09959507  0.19394518  0.11252600    -0.20700
C206        C  0.12262213  0.17377442  0.10566256    -0.08700
C207        C  0.12339396  0.16066624  0.07721029     0.30100
C208        C  0.10107733  0.16671442  0.05653616    -0.20700
C209        C  0.07785543  0.18633394  0.06354043    -0.08700
C210        C  0.07744461  0.20042817  0.09149180     0.30100
F211        F  0.05467192  0.21883608  0.09910056    -0.19300
H212        H  0.09817505  0.20384720  0.13449081     0.18500
H213        H  0.10175868  0.15579657  0.03500256     0.18500
F214        F  0.14559758  0.14176307  0.06933530    -0.19200
C215        C  0.20374605  0.05436939  0.09685914    -0.20700
C216        C  0.20695843  0.06308206  0.06710679    -0.08700
C217        C  0.20840261  0.09346729  0.06013718     0.30100
C218        C  0.20436211  0.11485761  0.08254786    -0.20700
C219        C  0.19845734  0.10607505  0.11191895    -0.08700
C220        C  0.19962735  0.07569568  0.11918304     0.30100
F221        F  0.19461444  0.06650034  0.14750889    -0.19300
H222        H  0.20248102  0.03099504  0.10251349     0.20500
H223        H  0.20356179  0.13818387  0.07660148     0.18500
F224        F  0.21128762  0.10235356  0.03140083    -0.19200
C225        C  0.09961993  0.10831361  0.19895991    -0.20700
C226        C  0.12060189  0.10255327  0.17632565    -0.08700
C227        C  0.11924664  0.07508439  0.16123968     0.30100
C228        C  0.09761087  0.05436540  0.16839620    -0.20700
C229        C  0.07667051  0.06027417  0.19064814    -0.08700
C230        C  0.07800663  0.08725364  0.20627432     0.30100
F231        F  0.05708160  0.09420055  0.22684793    -0.19300
H232        H  0.09895676  0.12962137  0.21012401     0.18500
H233        H  0.09676630  0.03374405  0.15590320     0.18500
F234        F  0.13826954  0.06807925  0.13899627    -0.19200
C235        C  0.35441844  0.27595307  0.12561986    -0.20700
C236        C  0.35811439  0.29190621  0.15229057    -0.08700
C237        C  0.36367616  0.27635888  0.17885363     0.30100
C238        C  0.36584643  0.24540869  0.17865483    -0.20700
C239        C  0.36258853  0.22943855  0.15202946    -0.08700
C240        C  0.35655369  0.24486147  0.12544596     0.30100
F241        F  0.35160127  0.22987175  0.09967238    -0.19300
H242        H  0.34951669  0.28758818  0.10505621     0.18500
H243        H  0.37024088  0.23381226  0.19936960     0.18500
F244        F  0.36762433  0.29114167  0.20493301    -0.19200
C245        C  0.41667460  0.34467245  0.06373704    -0.20700
C246        C  0.43866074  0.32314729  0.06902617    -0.08700
C247        C  0.43800086  0.30675772  0.09566265     0.30100
C248        C  0.41614965  0.31284570  0.11716433    -0.20700
C249        C  0.39419594  0.33467669  0.11189347    -0.08700
C250        C  0.39443565  0.35010702  0.08462859     0.30100
F251        F  0.37306555  0.37049195  0.07799727    -0.19300
H252        H  0.41658569  0.35720786  0.04312732     0.18500
H253        H  0.41692773  0.30111741  0.13820224     0.18500
F254        F  0.45929811  0.28608099  0.10151270    -0.19200
C255        C  0.33326790  0.43306965  0.12049844    -0.20700
C256        C  0.32193593  0.40431128  0.11733931    -0.08700
C257        C  0.30361991  0.39768998  0.09277600     0.30100
C258        C  0.29785523  0.41949308  0.07113026    -0.20700
C259        C  0.31076697  0.44769199  0.07365536    -0.08700
C260        C  0.32788925  0.45454455  0.09882828     0.30100
F261        F  0.34033184  0.48178382  0.10187028    -0.19300
H262        H  0.34738130  0.43853881  0.13927819     0.18500
H263        H  0.28494248  0.41383576  0.05156707     0.18500
F264        F  0.29330183  0.36973350  0.08850688    -0.19200
C265        C  0.42424396  0.39633690  0.17247128    -0.20700
C266        C  0.39650103  0.39950835  0.18625870    -0.08700
C267        C  0.39188180  0.42305808  0.20649118     0.30100
C268        C  0.41457178  0.44378001  0.21164984    -0.20700
C269        C  0.44165088  0.44133439  0.19631945    -0.08700
C270        C  0.44649911  0.41707754  0.17720379     0.30100
F271        F  0.47255375  0.41400604  0.16225643    -0.19300
H272        H  0.42829927  0.37828874  0.15694093     0.18500
H273        H  0.41036921  0.46269383  0.22600154     0.18500
F274        F  0.36499926  0.42725814  0.21950365    -0.19200
C275        C  0.15936339  0.26360289  0.12071590    -0.20700
C276        C  0.15511870  0.27908318  0.14762343    -0.08700
C277        C  0.15340094  0.26289189  0.17427159     0.30100
C278        C  0.15530880  0.23193461  0.17391028    -0.20700
C279        C  0.15832067  0.21617931  0.14709023    -0.08700
C280        C  0.16114169  0.23242468  0.12039807     0.30100
F281        F  0.16668434  0.21833324  0.09422253    -0.19300
H282        H  0.16177366  0.27568302  0.10001272     0.18500
H283        H  0.15419023  0.22035859  0.19481475     0.18500
F284        F  0.14906798  0.27691379  0.20073361    -0.19200
C285        C  0.26991727  0.33301172  0.14937269    -0.20700
C286        C  0.28339951  0.36062860  0.15410405    -0.08700
C287        C  0.26550227  0.38591912  0.15894613     0.30100
C288        C  0.23453924  0.38356224  0.15817566    -0.20700
C289        C  0.22111551  0.35596309  0.15288294    -0.08700
C290        C  0.23903936  0.33062449  0.14877211     0.30100
F291        F  0.22669595  0.30372317  0.14323370    -0.19300
H292        H  0.28339629  0.31329323  0.14570518     0.18500
H293        H  0.22099926  0.40319133  0.16203142     0.18500
F294        F  0.27789012  0.41260514  0.16531308    -0.19200
C295        C  0.11696998  0.33458616  0.07909680    -0.20700
C296        C  0.11573080  0.31910670  0.10613351    -0.08700
C297        C  0.09273243  0.29860991  0.11084858     0.30100
C298        C  0.07059584  0.29491034  0.08912140    -0.20700
C299        C  0.07075535  0.31234160  0.06316534    -0.08700
C300        C  0.09450884  0.33172130  0.05805788     0.30100
F301        F  0.09541348  0.34885992  0.03320669    -0.19300
H302        H  0.13453498  0.35043166  0.07503902     0.18500
H303        H  0.05225891  0.28009988  0.09349621     0.18500
F304        F  0.09022624  0.28416470  0.13723828    -0.19200
C305        C  0.16373402  0.42093612  0.11273299    -0.20700
C306        C  0.17946982  0.39392700  0.11271983    -0.08700
C307        C  0.20089984  0.38873442  0.09041768     0.30100
C308        C  0.20606808  0.41025449  0.06841876    -0.20700
C309        C  0.18920687  0.43664661  0.06778417    -0.08700
C310        C  0.16828600  0.44196994  0.09044980     0.30100
F311        F  0.15202637  0.46751525  0.09097658    -0.19300
H312        H  0.14717415  0.42542592  0.12968731     0.18500
H313        H  0.22211123  0.40564724  0.05102366     0.18500
F314        F  0.21535670  0.36223043  0.08864871    -0.19200
C315        C  0.11305792  0.40877581  0.20226733    -0.20700
C316        C  0.10681273  0.38686420  0.18080603    -0.08700
C317        C  0.07892011  0.38692883  0.16676916     0.30100
C318        C  0.05841817  0.40951527  0.17271764    -0.20700
C319        C  0.06505417  0.43211502  0.19318356    -0.08700
C320        C  0.09220208  0.43117778  0.20862996     0.30100
F321        F  0.09948918  0.45314813  0.22797658    -0.19300
H322        H  0.13460030  0.40942874  0.21298803     0.18500
H323        H  0.03745727  0.40971263  0.16082464     0.18500
F324        F  0.07170359  0.36545416  0.14679067    -0.19200
C325        C  0.17207654  0.35517933  0.23780980    -0.20700
C326        C  0.14668677  0.34844813  0.22114010    -0.08700
C327        C  0.12003009  0.34177893  0.23594047     0.30100
C328        C  0.11879982  0.34255261  0.26707240    -0.20700
C329        C  0.14416550  0.34970339  0.28369872    -0.08700
C330        C  0.17087042  0.35589045  0.26886817     0.30100
F331        F  0.19556113  0.36349754  0.28441080    -0.19300
H332        H  0.19271104  0.36048838  0.22668966     0.18500
H333        H  0.09822009  0.33716548  0.27824514     0.18500
F334        F  0.09544193  0.33399161  0.22032279    -0.19200
C335        C  0.11322690  0.31411471  0.42386037    -0.20700
C336        C  0.10544252  0.31516937  0.39367685    -0.08700
C337        C  0.07610351  0.30920945  0.38498985     0.30100
C338        C  0.05438372  0.30398292  0.40658872    -0.20700
C339        C  0.06188578  0.30469665  0.43688469    -0.08700
C340        C  0.09156916  0.30884191  0.44541097     0.30100
F341        F  0.09916777  0.30969592  0.47467154    -0.19300
H342        H  0.13572154  0.31907108  0.43078420     0.18500
H343        H  0.03146586  0.30122199  0.39980460     0.18500
F344        F  0.06811778  0.31045961  0.35585163    -0.19200
C345        C  0.08583158  0.43299916  0.29863166    -0.20700
C346        C  0.05855265  0.43270061  0.31368042    -0.08700
C347        C  0.05175156  0.40859114  0.33220540     0.30100
C348        C  0.07239948  0.38580527  0.33659752    -0.20700
C349        C  0.10044114  0.38675210  0.32306591    -0.08700
C350        C  0.10688484  0.41033646  0.30349974     0.30100
F351        F  0.13428582  0.41302322  0.29132427    -0.19300
H352        H  0.09167922  0.45189186  0.28498894     0.18500
H353        H  0.06698105  0.36809497  0.35190866     0.18500
F354        F  0.02553655  0.40774443  0.34710423    -0.19200
C355        C  0.15293796  0.41967412  0.39460182    -0.20700
C356        C  0.16920854  0.39291739  0.39467828    -0.08700
C357        C  0.19156565  0.38870947  0.41625218     0.30100
C358        C  0.19783129  0.41123921  0.43681654    -0.20700
C359        C  0.18116390  0.43775180  0.43697973    -0.08700
C360        C  0.15860302  0.44179346  0.41567820     0.30100
F361        F  0.14232008  0.46730669  0.41494240    -0.19300
H362        H  0.13568675  0.42345215  0.37815013     0.18500
H363        H  0.21496410  0.40751154  0.45338550     0.18500
F364        F  0.20645376  0.36246308  0.41835307    -0.19200
C365        C  0.16352891  0.11789916  0.26636046    -0.20700
C366        C  0.15299569  0.14308887  0.28162927    -0.08700
C367        C  0.14320529  0.16793783  0.26549970     0.30100
C368        C  0.14397986  0.16763968  0.23449783    -0.20700
C369        C  0.15546591  0.14305872  0.21913274    -0.08700
C370        C  0.16502830  0.11793486  0.23519254     0.30100
F371        F  0.17623392  0.09380618  0.22077644    -0.19300
H372        H  0.17127241  0.09861085  0.27862734     0.18500
H373        H  0.13494732  0.18637071  0.22250553     0.18500
F374        F  0.13251126  0.19236239  0.27970695    -0.19200
C375        C  0.17194193  0.23221104  0.36724953    -0.20700
C376        C  0.14967722  0.21615999  0.35265516    -0.08700
C377        C  0.12557666  0.23147650  0.33984646     0.30100
C378        C  0.12463680  0.26259108  0.34048642    -0.20700
C379        C  0.14704641  0.27863270  0.35498120    -0.08700
C380        C  0.17026154  0.26318632  0.36911698     0.30100
F381        F  0.19051844  0.27786099  0.38582091    -0.19300
H382        H  0.19005651  0.22065802  0.37814849     0.18500
H383        H  0.10640190  0.27419496  0.32975630     0.18500
F384        F  0.10303895  0.21637376  0.32680741    -0.19200
C385        C  0.09161425  0.10977709  0.30424291    -0.20700
C386        C  0.11620194  0.10254161  0.32223138    -0.08700
C387        C  0.11859128  0.07381774  0.33423947     0.30100
C388        C  0.09605701  0.05320498  0.32967310    -0.20700
C389        C  0.07079629  0.06079416  0.31298315    -0.08700
C390        C  0.06889593  0.08903578  0.29972998     0.30100
F391        F  0.04392279  0.09744025  0.28493145    -0.19300
H392        H  0.08907854  0.13204681  0.29539328     0.18500
H393        H  0.09784643  0.03152576  0.34006175     0.18500
F394        F  0.14226719  0.06604097  0.35135753    -0.19200
C395        C  0.17635833  0.11421791  0.42396159    -0.20700
C396        C  0.18676242  0.10946530  0.39494314    -0.08700
C397        C  0.20411214  0.08401389  0.38883676     0.30100
C398        C  0.20989611  0.06314467  0.41139984    -0.20700
C399        C  0.19774222  0.06710651  0.43993179    -0.08700
C400        C  0.18168168  0.09327051  0.44625423     0.30100
F401        F  0.17006381  0.09797542  0.47377835    -0.19300
H402        H  0.16282067  0.13359686  0.42900470     0.18500
H403        H  0.22189904  0.04288562  0.40601336     0.18500
F404        F  0.21305209  0.07789086  0.36065018    -0.19200
C405        C  0.11709738  0.19710130  0.41265501    -0.20700
C406        C  0.11112603  0.17563047  0.39066451    -0.08700
C407        C  0.08307428  0.16225761  0.38984716     0.30100
C408        C  0.06197074  0.16907833  0.41148112    -0.20700
C409        C  0.06820652  0.18965440  0.43410270    -0.08700
C410        C  0.09564284  0.20435980  0.43412209     0.30100
F411        F  0.10248485  0.22400064  0.45603238    -0.19300
H412        H  0.13877331  0.20723108  0.41408152     0.18500
H413        H  0.04083530  0.15771152  0.41096514     0.18500
F414        F  0.07618302  0.14216142  0.36838292    -0.19200
C415        C  0.33517328  0.15700774  0.27202389    -0.20700
C416        C  0.36120220  0.16009836  0.28884534    -0.08700
C417        C  0.38844424  0.16411181  0.27410209     0.30100
C418        C  0.38956669  0.16382421  0.24295635    -0.20700
C419        C  0.36354226  0.15997279  0.22619520    -0.08700
C420        C  0.33624619  0.15694575  0.24098856     0.30100
F421        F  0.31066939  0.15304024  0.22548111    -0.19300
H422        H  0.31397693  0.15408495  0.28297124     0.18500
H423        H  0.41066652  0.16700765  0.23189766     0.18500
F424        F  0.41376094  0.16905775  0.28972027    -0.19200
C425        C  0.23730039  0.16906927  0.37389193    -0.20700
C426        C  0.22421108  0.14899289  0.35403804    -0.08700
C427        C  0.24219140  0.13229723  0.33460986     0.30100
C428        C  0.27311780  0.13462231  0.33621575    -0.20700
C429        C  0.28617527  0.15447977  0.35635194    -0.08700
C430        C  0.26810823  0.17236362  0.37455783     0.30100
F431        F  0.28034387  0.19269236  0.39319526    -0.19300
H432        H  0.22364031  0.18226154  0.38874913     0.18500
H433        H  0.28689102  0.12114209  0.32166373     0.18500
F434        F  0.22982727  0.11376458  0.31424696    -0.19200
C435        C  0.30529164  0.12206535  0.41937025    -0.20700
C436        C  0.32598916  0.11607911  0.39665213    -0.08700
C437        C  0.33997254  0.08809526  0.39569369     0.30100
C438        C  0.33471441  0.06722939  0.41794273    -0.20700
C439        C  0.31498358  0.07354717  0.44128785    -0.08700
C440        C  0.29945371  0.10076730  0.44137840     0.30100
F441        F  0.28037320  0.10758534  0.46379993    -0.19300
H442        H  0.29491616  0.14372020  0.42114540     0.18500
H443        H  0.34652180  0.04616075  0.41721794     0.18500
F444        F  0.35943423  0.08119042  0.37363320    -0.19200
C445        C  0.41735470  0.07731229  0.30380996    -0.20700
C446        C  0.44386125  0.07695596  0.32034113    -0.08700
C447        C  0.44898284  0.09956530  0.34131225     0.30100
C448        C  0.42755024  0.12154106  0.34631751    -0.20700
C449        C  0.40039653  0.12119887  0.33095115    -0.08700
C450        C  0.39548184  0.09894521  0.30939439     0.30100
F451        F  0.36893410  0.09680636  0.29525011    -0.19300
H452        H  0.41285321  0.05981288  0.28785298     0.18500
H453        H  0.43188320  0.13853153  0.36287282     0.18500
F454        F  0.47461226  0.10019616  0.35727190    -0.19200
C455        C  0.41422284  0.18331665  0.45127653    -0.20700
C456        C  0.43850708  0.20113903  0.44380710    -0.08700
C457        C  0.43867087  0.21591179  0.41620394     0.30100
C458        C  0.41571578  0.21093416  0.39556646    -0.20700
C459        C  0.39243304  0.19144380  0.40251842    -0.08700
C460        C  0.39132190  0.17864082  0.43098728     0.30100
F461        F  0.36870499  0.16039989  0.43870067    -0.19300
H462        H  0.41356896  0.17200981  0.47257273     0.18500
H463        H  0.41709828  0.22072787  0.37357921     0.18500
F464        F  0.46214212  0.23289026  0.40823375    -0.19200
C465        C  0.37998483  0.35698515  0.24264247    -0.20700
C466        C  0.35413868  0.36213392  0.22587030    -0.08700
C467        C  0.32709531  0.36723727  0.24066706     0.30100
C468        C  0.32602693  0.36741338  0.27176816    -0.20700
C469        C  0.35186490  0.36263744  0.28859850    -0.08700
C470        C  0.37888720  0.35707420  0.27383040     0.30100
F471        F  0.40397935  0.35097434  0.28950735    -0.19300
H472        H  0.40089254  0.35250050  0.23155434     0.18500
H473        H  0.30502729  0.37168901  0.28279689     0.18500
F474        F  0.30184457  0.37285680  0.22503052    -0.19200
C475        C  0.25805142  0.38766048  0.35330957    -0.20700
C476        C  0.27595504  0.36224480  0.35721981    -0.08700
C477        C  0.26240473  0.33431069  0.35944938     0.30100
C478        C  0.23166011  0.33186610  0.35792899    -0.20700
C479        C  0.21357708  0.35713340  0.35521971    -0.08700
C480        C  0.22702118  0.38517045  0.35219732     0.30100
F481        F  0.21029811  0.40990191  0.34726402    -0.19300
H482        H  0.26809895  0.40929113  0.35060020     0.18500
H483        H  0.22199750  0.31007230  0.35928712     0.18500
F484        F  0.27883375  0.30927470  0.36382017    -0.19200
C485        C  0.35310244  0.27726495  0.33455162    -0.20700
C486        C  0.34814670  0.29263229  0.36130405    -0.08700
C487        C  0.34459705  0.27646797  0.38786675     0.30100
C488        C  0.34707884  0.24545115  0.38765882    -0.20700
C489        C  0.35278260  0.23016119  0.36096806    -0.08700
C490        C  0.35545570  0.24629988  0.33431897     0.30100
F491        F  0.36116740  0.23220317  0.30816074    -0.19300
H492        H  0.35589733  0.28935417  0.31388406     0.18500
H493        H  0.34407514  0.23331066  0.40824982     0.18500
F494        F  0.33818933  0.29059026  0.41383832    -0.19200
C495        C  0.31958150  0.45670952  0.41358179    -0.20700
C496        C  0.30356970  0.44986233  0.43939909    -0.08700
C497        C  0.29074938  0.42156689  0.44216674     0.30100
C498        C  0.29584014  0.39982495  0.42012207    -0.20700
C499        C  0.31362614  0.40630164  0.39524437    -0.08700
C500        C  0.32447955  0.43526236  0.39166217     0.30100
F501        F  0.34122580  0.44238902  0.36760755    -0.19300
H502        H  0.32958070  0.47841710  0.41108140     0.18500
H503        H  0.28756994  0.37751219  0.42338901     0.18500
F504        F  0.27566899  0.41421397  0.46722605    -0.19200
C505        C  0.38528532  0.34741685  0.43020448    -0.20700
C506        C  0.38551544  0.33353618  0.40220558    -0.08700
C507        C  0.40818738  0.31269871  0.39570518     0.30100
C508        C  0.43009733  0.30610770  0.41698498    -0.20700
C509        C  0.43031625  0.32093769  0.44447728    -0.08700
C510        C  0.40756639  0.34144477  0.45104273     0.30100
F511        F  0.40722547  0.35613494  0.47749322    -0.19300
H512        H  0.36815803  0.36356034  0.43567334     0.18500
H513        H  0.44793224  0.29087197  0.41129750     0.18500
F514        F  0.41051482  0.30036057  0.36820331    -0.19200
C515        C  0.38628620  0.42291263  0.30914449    -0.20700
C516        C  0.39069730  0.40076958  0.33083804    -0.08700
C517        C  0.41797520  0.39924712  0.34599911     0.30100
C518        C  0.43967496  0.42045729  0.34093807    -0.20700
C519        C  0.43500112  0.44323180  0.32018270    -0.08700
C520        C  0.40848822  0.44395339  0.30361366     0.30100
F521        F  0.40336946  0.46596703  0.28358655    -0.19300
H522        H  0.36532880  0.42458482  0.29737873     0.18500
H523        H  0.46024850  0.41918261  0.35345183     0.18500
F524        F  0.42365328  0.37730179  0.36597204    -0.19200
C525        C  0.32869656  0.34108029  0.83849485     0.46100
H526        H  0.31567877  0.32642441  0.82348103    -0.02900
C527        C  0.35917425  0.37528744  0.87328970     0.46100
H528        H  0.37222340  0.39008815  0.88812816    -0.02900
C529        C  0.35079087  0.36099610  0.82175205    -0.16600
C530        C  0.30933261  0.36240697  0.85710234    -0.16400
C531        C  0.34753346  0.32394582  0.86144425    -0.16800
C532        C  0.36719265  0.37873790  0.84033321    -0.16700
C533        C  0.32553054  0.38101751  0.87502873    -0.16300
C534        C  0.36375843  0.34207648  0.87986823    -0.16600
C535        C  0.37075822  0.14547728  0.87379630     0.46100
H536        H  0.38497130  0.13194278  0.88890377    -0.02900
C537        C  0.33748548  0.17719375  0.83879422     0.46100
H538        H  0.32293111  0.19072274  0.82399466    -0.02900
C539        C  0.33772984  0.13793737  0.87612233    -0.16600
C540        C  0.37258782  0.17898995  0.87999889    -0.16400
C541        C  0.37850101  0.14153565  0.84071030    -0.16800
C542        C  0.32015532  0.15494011  0.85783716    -0.16700
C543        C  0.35524971  0.19583851  0.86123698    -0.16300
C544        C  0.36093414  0.15846258  0.82211575    -0.16600
C545        C  0.17452305  0.16732378  0.83198561     0.46100
H546        H  0.18839562  0.18209224  0.81797197    -0.02900
C547        C  0.14274694  0.13277683  0.86531045     0.46100
H548        H  0.12930480  0.11804016  0.87978854    -0.02900
C549        C  0.15525286  0.14529743  0.81418604    -0.16600
C550        C  0.19296639  0.14761158  0.85298636    -0.16400
C551        C  0.15267339  0.18421970  0.85229529    -0.16800
C552        C  0.13869966  0.12684395  0.83189832    -0.16700
C553        C  0.17620229  0.12961670  0.87074747    -0.16300
C554        C  0.13562563  0.16597109  0.86960312    -0.16600
C555        C  0.12968268  0.36266421  0.86410845     0.46100
H556        H  0.11419554  0.37617947  0.87795399    -0.02900
C557        C  0.16574180  0.33060298  0.83216574     0.46100
H558        H  0.18105008  0.31668795  0.81853363    -0.02900
C559        C  0.16245865  0.37019770  0.86927648    -0.16600
C560        C  0.12723635  0.32931114  0.87002658    -0.16400
C561        C  0.12470086  0.36612650  0.83048543    -0.16800
C562        C  0.18159072  0.35338291  0.85221798    -0.16700
C563        C  0.14602058  0.31227980  0.85311988    -0.16300
C564        C  0.14389992  0.34935556  0.81352952    -0.16600
C565        C  0.17064758  0.32947939  0.66794913     0.46100
H566        H  0.18506811  0.31576026  0.68270160    -0.02900
C567        C  0.13666412  0.36149143  0.63385481     0.46100
H568        H  0.12215369  0.37523526  0.61921317    -0.02900
C569        C  0.14733220  0.34792117  0.68510794    -0.16600
C570        C  0.18774969  0.35235852  0.64911771    -0.16400
C571        C  0.15274397  0.31103197  0.64537605    -0.16800
C572        C  0.12933625  0.36484935  0.66705126    -0.16700
C573        C  0.16960415  0.36931297  0.63115303    -0.16300
C574        C  0.13496989  0.32804732  0.62724835    -0.16600
C575        C  0.36601318  0.37801915  0.64248671     0.46100
H576        H  0.37987042  0.39319430  0.62890380    -0.02900
C577        C  0.33416678  0.34266216  0.67456098     0.46100
H578        H  0.32060948  0.32738923  0.68833968    -0.02900
C579        C  0.33244978  0.38265190  0.63802017    -0.16600
C580        C  0.37184242  0.34506851  0.63571371    -0.16400
C581        C  0.37148284  0.38148273  0.67604852    -0.16800
C582        C  0.31551313  0.36361076  0.65475737    -0.16700
C583        C  0.35537667  0.32628275  0.65311081    -0.16300
C584        C  0.35417157  0.36322054  0.69311733    -0.16600
C585        C  0.15199725  0.13032498  0.63382488     0.46100
H586        H  0.14002949  0.11527112  0.61848052    -0.02900
C587        C  0.17981208  0.16642217  0.66909294     0.46100
H588        H  0.19193959  0.18184075  0.68408870    -0.02900
C589        C  0.18596396  0.12747446  0.63195464    -0.16600
C590        C  0.14492870  0.16335129  0.62777216    -0.16400
C591        C  0.14447115  0.12521970  0.66685873    -0.16800
C592        C  0.20067384  0.14678601  0.65032606    -0.16700
C593        C  0.15963901  0.18243928  0.64646350    -0.16300
C594        C  0.15966756  0.14417772  0.68557731    -0.16600
C595        C  0.34467634  0.18031665  0.67496533     0.46100
H596        H  0.32967630  0.19445374  0.68870975    -0.02900
C597        C  0.37947789  0.14732608  0.64270759     0.46100
H598        H  0.39435912  0.13313909  0.62887716    -0.02900
C599        C  0.36605498  0.16077238  0.69345083    -0.16600
C600        C  0.32804057  0.15841887  0.65470447    -0.16400
C601        C  0.36460075  0.19820688  0.65376254    -0.16800
C602        C  0.38464528  0.14354047  0.67627371    -0.16700
C603        C  0.34648321  0.14089775  0.63771169    -0.16300
C604        C  0.38284551  0.18065773  0.63654409    -0.16600
O605        O  0.03923123  0.03108494  0.66910648    -0.72300
O606        O  0.47142628  0.47699413  0.67502267    -0.73300
O607        O  0.47750052  0.03940283  0.67239677    -0.61900
O608        O  0.03369357  0.46900960  0.66839196    -0.70300
O609        O  0.03894941  0.46990431  0.71757350    -0.69900
O610        O  0.47811269  0.03896372  0.72188956    -0.61100
O611        O  0.47420690  0.47498767  0.72441101    -0.73600
O612        O  0.04088191  0.03380707  0.71846771    -0.72400
Cu613      Cu  0.00492381  0.00358188  0.66927769     1.04600
Cu614      Cu  0.00740588  0.00369453  0.72209151     1.04300
C615        C  0.05085185  0.04137055  0.69287251     0.93900
C616        C  0.46280075  0.46626592  0.69978114     0.93000
C617        C  0.46907933  0.05022976  0.69733341     0.85200
C618        C  0.04511828  0.45841801  0.69218114     0.91400
O619        O  0.47632305  0.03769111  0.84216853    -0.72300
O620        O  0.03141037  0.46784966  0.83531959    -0.73300
O621        O  0.03963324  0.02994868  0.83745219    -0.61900
O622        O  0.46923682  0.47540004  0.84330045    -0.70300
O623        O  0.46634879  0.47480375  0.79388160    -0.69900
O624        O  0.03514110  0.03287853  0.78825484    -0.61100
O625        O  0.02986698  0.46982397  0.78587740    -0.73600
O626        O  0.47049693  0.03751545  0.79304256    -0.72400
Cu627      Cu  0.00483870  0.00300222  0.84118563     1.04600
Cu628      Cu  0.00107384  0.00363580  0.78841743     1.04300
C629        C  0.46450802  0.04852636  0.81864700     0.93900
C630        C  0.03912199  0.45764860  0.80994366     0.93000
C631        C  0.04825674  0.04021986  0.81244648     0.85200
C632        C  0.45757903  0.46560931  0.81931233     0.91400
O633        O  0.21371161  0.46436625  0.96807704    -0.72300
O634        O  0.22689910  0.02697006  0.53182349    -0.73300
O635        O  0.21773958  0.46521786  0.53183640    -0.61900
O636        O  0.22140389  0.02858223  0.96788639    -0.70300
O637        O  0.17291802  0.03645208  0.97292247    -0.69900
O638        O  0.16916372  0.47349110  0.53444137    -0.61100
O639        O  0.17816092  0.03348860  0.53639954    -0.73600
O640        O  0.16512132  0.47277546  0.97009618    -0.72400
Cu641      Cu  0.22122465  0.99575646  0.49987799     1.04600
Cu642      Cu  0.16928939  0.00406318  0.50428114     1.04300
C643        C  0.18742030  0.45910912  0.95880386     0.93900
C644        C  0.20466765  0.03974905  0.54415782     0.93000
C645        C  0.19240191  0.45973175  0.54340354     0.85200
C646        C  0.19770691  0.04287339  0.96095005     0.91400
O647        O  0.03569757  0.16786112  0.96873294    -0.72300
O648        O  0.47877666  0.17425327  0.53524089    -0.73300
O649        O  0.47292611  0.17232764  0.97432278    -0.61900
O650        O  0.04148166  0.16661772  0.53053715    -0.70300
O651        O  0.04428432  0.21574470  0.53465452    -0.69900
O652        O  0.47792897  0.22139847  0.97312385    -0.61100
O653        O  0.48027462  0.22360178  0.53554352    -0.73600
O654        O  0.04191567  0.21674090  0.97104023    -0.72400
Cu655      Cu  0.00706334  0.16893189  0.50271001     1.04600
Cu656      Cu  0.01145604  0.22147439  0.50447906     1.04300
C657        C  0.04790079  0.19149644  0.95918422     0.93900
C658        C  0.46965084  0.19920243  0.54537374     0.93000
C659        C  0.46431702  0.19780543  0.96514399     0.85200
C660        C  0.05350862  0.18971965  0.54164714     0.91400
O661        O  0.28786723  0.04389074  0.97670257    -0.72300
O662        O  0.28525993  0.48270804  0.54000597    -0.73300
O663        O  0.29173629  0.04527475  0.54128635    -0.61900
O664        O  0.28252179  0.48055132  0.97582674    -0.70300
O665        O  0.33166415  0.47655168  0.97382630    -0.69900
O666        O  0.34057036  0.03884045  0.53828658    -0.61100
O667        O  0.33432992  0.47824671  0.53705914    -0.73600
O668        O  0.33686284  0.03812159  0.97542900    -0.72400
Cu669      Cu  0.28441685  0.01405534  0.50940959     1.04600
Cu670      Cu  0.33678372  0.00817521  0.50645130     1.04300
C671        C  0.31316778  0.05044311  0.96568297     0.93900
C672        C  0.30968249  0.47106999  0.54894269     0.93000
C673        C  0.31803530  0.05155519  0.55002439     0.85200
C674        C  0.30601555  0.46927588  0.96426937     0.91400
O675        O  0.02963853  0.28801014  0.97086466    -0.72300
O676        O  0.46863189  0.29417005  0.53805484    -0.73300
O677        O  0.46519897  0.29146545  0.97367508    -0.61900
O678        O  0.03093366  0.28493764  0.53354900    -0.70300
O679        O  0.03544426  0.33398988  0.53068756    -0.69900
O680        O  0.46998727  0.34059212  0.97326082    -0.61100
O681        O  0.47280289  0.34328815  0.53551550    -0.73600
O682        O  0.03303022  0.33729316  0.97085950    -0.72400
Cu683      Cu  0.99709099  0.28570819  0.50368336     1.04600
Cu684      Cu  0.00212233  0.33825130  0.50200430     1.04300
C685        C  0.04115969  0.31191059  0.96093424     0.93900
C686        C  0.46113657  0.32017593  0.54694956     0.93000
C687        C  0.45680381  0.31713810  0.96453479     0.85200
C688        C  0.04424439  0.30893945  0.54078063     0.91400
C689        C  0.35102547  0.08976604  0.61715842    -0.20700
C690        C  0.33683356  0.11759312  0.61636949    -0.08700
C691        C  0.31537610  0.12322220  0.59415240     0.30100
C692        C  0.30805824  0.10105788  0.57347986    -0.20700
C693        C  0.32296620  0.07356359  0.57386320    -0.08700
C694        C  0.34446705  0.06806213  0.59596584     0.30100
F695        F  0.35926099  0.04168974  0.59701300    -0.19300
H696        H  0.36763019  0.08497353  0.63402012     0.18500
H697        H  0.29188482  0.10589469  0.55622776     0.18500
F698        F  0.30280982  0.15056846  0.59126639    -0.19200
C699        C  0.40029502  0.17586921  0.58479869    -0.20700
C700        C  0.40264772  0.19058751  0.61221354    -0.08700
C701        C  0.42584376  0.21098768  0.61663530     0.30100
C702        C  0.44710003  0.21531439  0.59413476    -0.20700
C703        C  0.44554895  0.19893576  0.56749331    -0.08700
C704        C  0.42156268  0.17973218  0.56278589     0.30100
F705        F  0.41914283  0.16397227  0.53707113    -0.19300
H706        H  0.38246376  0.16028300  0.58085647     0.18500
H707        H  0.46566017  0.22995797  0.59818211     0.18500
F708        F  0.42915293  0.22500876  0.64320993    -0.19200
C709        C  0.43597155  0.12362238  0.67455959    -0.20700
C710        C  0.40753434  0.12225639  0.68714078    -0.08700
C711        C  0.40054927  0.09840892  0.70615968     0.30100
C712        C  0.42153188  0.07575917  0.71138096    -0.20700
C713        C  0.44921326  0.07633712  0.69704098    -0.08700
C714        C  0.45657264  0.10083617  0.67926108     0.30100
F715        F  0.48342908  0.10219917  0.66561714    -0.19300
H716        H  0.44176792  0.14180884  0.65990190     0.18500
H717        H  0.41545838  0.05683411  0.72492455     0.18500
F718        F  0.37285376  0.09572203  0.71767270    -0.19200
C719        C  0.24641916  0.17731047  0.64668654    -0.20700
C720        C  0.23333824  0.14960901  0.65210241    -0.08700
C721        C  0.25143066  0.12538032  0.66026863     0.30100
C722        C  0.28222098  0.12846545  0.66137532    -0.20700
C723        C  0.29535340  0.15587556  0.65497161    -0.08700
C724        C  0.27726002  0.18051969  0.64822089     0.30100
F725        F  0.28948001  0.20730504  0.64198687    -0.19300
H726        H  0.23271909  0.19634366  0.64085844     0.18500
H727        H  0.29589557  0.10949090  0.66742547     0.18500
F728        F  0.23938298  0.09909120  0.66829713    -0.19200
C729        C  0.10100824  0.19399426  0.61093379    -0.20700
C730        C  0.12303754  0.17253504  0.60461452    -0.08700
C731        C  0.12272020  0.15824838  0.57670555     0.30100
C732        C  0.10035306  0.16458677  0.55612169    -0.20700
C733        C  0.07829833  0.18573161  0.56259553    -0.08700
C734        C  0.07903572  0.20088501  0.58992725     0.30100
F735        F  0.05738349  0.22074389  0.59711684    -0.19300
H736        H  0.10001887  0.20461644  0.63255386     0.18500
H737        H  0.10013102  0.15278841  0.53505364     0.18500
F738        F  0.14391266  0.13801823  0.56922129    -0.19200
C739        C  0.20488325  0.05370094  0.59743478    -0.20700
C740        C  0.20893918  0.06198631  0.56766416    -0.08700
C741        C  0.21121475  0.09222043  0.56033917     0.30100
C742        C  0.20666871  0.11397594  0.58226957    -0.20700
C743        C  0.19999114  0.10564792  0.61158940    -0.08700
C744        C  0.20074479  0.07539703  0.61937452     0.30100
F745        F  0.19541501  0.06675079  0.64782195    -0.19300
H746        H  0.20304015  0.03043207  0.60335593     0.20500
H747        H  0.20610211  0.13720811  0.57594487     0.18500
F748        F  0.21522260  0.10062196  0.53159544    -0.19200
C749        C  0.10069666  0.10902348  0.69837830    -0.20700
C750        C  0.12192581  0.10258898  0.67614520    -0.08700
C751        C  0.12004229  0.07503315  0.66122180     0.30100
C752        C  0.09763298  0.05498723  0.66800832    -0.20700
C753        C  0.07634510  0.06159196  0.68973302    -0.08700
C754        C  0.07821208  0.08863156  0.70526838     0.30100
F755        F  0.05704878  0.09629951  0.72532838    -0.19300
H756        H  0.10067539  0.13034609  0.70957554     0.18500
H757        H  0.09651187  0.03430641  0.65563749     0.18500
F758        F  0.13933154  0.06727302  0.63946176    -0.19200
C759        C  0.35438445  0.27741440  0.62609558    -0.20700
C760        C  0.35778562  0.29344358  0.65273905    -0.08700
C761        C  0.36328638  0.27800846  0.67938926     0.30100
C762        C  0.36574681  0.24707479  0.67927150    -0.20700
C763        C  0.36284751  0.23103644  0.65264727    -0.08700
C764        C  0.35677625  0.24636051  0.62600564     0.30100
F765        F  0.35206084  0.23131155  0.60022520    -0.19300
H766        H  0.34950027  0.28895894  0.60547665     0.18500
H767        H  0.37015847  0.23555784  0.70002685     0.18500
F768        F  0.36693889  0.29288023  0.70546253    -0.19200
C769        C  0.41508863  0.34490460  0.56369388    -0.20700
C770        C  0.43773613  0.32420936  0.56946483    -0.08700
C771        C  0.43798065  0.30883797  0.59671727     0.30100
C772        C  0.41620735  0.31504273  0.61825429    -0.20700
C773        C  0.39363317  0.33608222  0.61246800    -0.08700
C774        C  0.39307435  0.35056778  0.58473346     0.30100
F775        F  0.37116166  0.37028204  0.57785676    -0.19300
H776        H  0.41440529  0.35671041  0.54266559     0.18500
H777        H  0.41748530  0.30407996  0.63968926     0.18500
F778        F  0.46007271  0.28917550  0.60309716    -0.19200
C779        C  0.33482257  0.43429363  0.61954555    -0.20700
C780        C  0.32154287  0.40626266  0.61751406    -0.08700
C781        C  0.30123288  0.40077063  0.59421355     0.30100
C782        C  0.29541672  0.42284023  0.57279339    -0.20700
C783        C  0.31044474  0.45006003  0.57400297    -0.08700
C784        C  0.32963990  0.45583683  0.59790921     0.30100
F785        F  0.34424823  0.48207257  0.59973646    -0.19300
H786        H  0.35030205  0.43912438  0.63739115     0.18500
H787        H  0.28081366  0.41796876  0.55424283     0.18500
F788        F  0.28880126  0.37359118  0.59081176    -0.19200
C789        C  0.42355568  0.39787286  0.67376231    -0.20700
C790        C  0.39552217  0.40107845  0.68691447    -0.08700
C791        C  0.39055060  0.42442718  0.70729993     0.30100
C792        C  0.41322536  0.44492954  0.71329308    -0.20700
C793        C  0.44069062  0.44240350  0.69870814    -0.08700
C794        C  0.44586542  0.41833633  0.67942277     0.30100
F795        F  0.47230362  0.41524526  0.66516967    -0.19300
H796        H  0.42786499  0.37995892  0.65814436     0.18500
H797        H  0.40876360  0.46373400  0.72771965     0.18500
F798        F  0.36339059  0.42858768  0.71973536    -0.19200
C799        C  0.16468963  0.26265871  0.61970705    -0.20700
C800        C  0.15422363  0.27812868  0.64484435    -0.08700
C801        C  0.14504284  0.26208981  0.66990641     0.30100
C802        C  0.14607227  0.23108119  0.66974039    -0.20700
C803        C  0.15745684  0.21545134  0.64521935    -0.08700
C804        C  0.16658055  0.23147092  0.61995424     0.30100
F805        F  0.17754767  0.21699172  0.59576382    -0.19300
H806        H  0.17183884  0.27477332  0.60017879     0.18500
H807        H  0.13699968  0.21933592  0.68841365     0.18500
F808        F  0.13406592  0.27642874  0.69419169    -0.19200
C809        C  0.26974369  0.33345670  0.65052602    -0.20700
C810        C  0.28266720  0.36154755  0.65399292    -0.08700
C811        C  0.26416869  0.38667852  0.65716480     0.30100
C812        C  0.23327749  0.38367140  0.65567755    -0.20700
C813        C  0.22043912  0.35559974  0.65131836    -0.08700
C814        C  0.23894722  0.33042468  0.64927383     0.30100
F815        F  0.22732320  0.30296746  0.64508452    -0.19300
H816        H  0.28360830  0.31380164  0.64820456     0.18500
H817        H  0.21933944  0.40322855  0.65822931     0.18500
F818        F  0.27584792  0.41392540  0.66238525    -0.19200
C819        C  0.11661940  0.33133354  0.57556540    -0.20700
C820        C  0.11527281  0.31710042  0.60326567    -0.08700
C821        C  0.09219326  0.29689986  0.60885389     0.30100
C822        C  0.06994803  0.29245456  0.58742764    -0.20700
C823        C  0.07024781  0.30854393  0.56067369    -0.08700
C824        C  0.09426416  0.32734502  0.55453189     0.30100
F825        F  0.09540448  0.34298022  0.52870058    -0.19300
H826        H  0.13422623  0.34695793  0.57087643     0.18500
H827        H  0.05131091  0.27833307  0.59267402     0.18500
F828        F  0.08951834  0.28370894  0.63586301    -0.19200
C829        C  0.16387403  0.42067638  0.61194055    -0.20700
C830        C  0.17905138  0.39338329  0.61072117    -0.08700
C831        C  0.20028794  0.38862666  0.58819275     0.30100
C832        C  0.20571791  0.41083757  0.56697788    -0.20700
C833        C  0.18945105  0.43761794  0.56752027    -0.08700
C834        C  0.16883004  0.44252910  0.59054648     0.30100
F835        F  0.15324983  0.46843896  0.59225854    -0.19300
H836        H  0.14749523  0.42478643  0.62916468     0.18500
H837        H  0.22150822  0.40653986  0.54927758     0.18500
F838        F  0.21435547  0.36197602  0.58556307    -0.19200
C839        C  0.11306260  0.40849489  0.69845669    -0.20700
C840        C  0.10634450  0.38645744  0.67725119    -0.08700
C841        C  0.07837292  0.38690889  0.66337501     0.30100
C842        C  0.05822193  0.40986808  0.66931516    -0.20700
C843        C  0.06529922  0.43253797  0.68958159    -0.08700
C844        C  0.09257413  0.43127738  0.70481282     0.30100
F845        F  0.10029869  0.45320865  0.72404225    -0.19300
H846        H  0.13467178  0.40886708  0.70906185     0.18500
H847        H  0.03716804  0.41026839  0.65759699     0.18500
F848        F  0.07071460  0.36538427  0.64362101    -0.19200
C849        C  0.17195339  0.35267447  0.73434965    -0.20700
C850        C  0.14592522  0.34768239  0.71801298    -0.08700
C851        C  0.11914299  0.34253374  0.73318548     0.30100
C852        C  0.11843686  0.34325872  0.76431789    -0.20700
C853        C  0.14443056  0.34883310  0.78061140    -0.08700
C854        C  0.17128233  0.35326914  0.76540994     0.30100
F855        F  0.19671169  0.35904840  0.78055947    -0.19300
H856        H  0.19275433  0.35668109  0.72297690     0.18500
H857        H  0.09771053  0.33907865  0.77574317     0.18500
F858        F  0.09390219  0.33618086  0.71796245    -0.19200
C859        C  0.11393493  0.32605409  0.92311619    -0.20700
C860        C  0.10741149  0.31834292  0.89360824    -0.08700
C861        C  0.07980649  0.30563187  0.88674662     0.30100
C862        C  0.05869524  0.30148131  0.90926299    -0.20700
C863        C  0.06477400  0.31073489  0.93848261    -0.08700
C864        C  0.09276165  0.32241581  0.94540886     0.30100
F865        F  0.09913382  0.33143748  0.97354441    -0.19300
H866        H  0.13492230  0.33641209  0.92856544     0.18500
H867        H  0.03698228  0.29292942  0.90356699     0.18500
F868        F  0.07235413  0.29962205  0.85808572    -0.19200
C869        C  0.08680208  0.43306005  0.79558621    -0.20700
C870        C  0.05885896  0.43152367  0.80925243    -0.08700
C871        C  0.05165461  0.40649492  0.82636703     0.30100
C872        C  0.07271270  0.38415279  0.83114466    -0.20700
C873        C  0.10134633  0.38652720  0.81922524    -0.08700
C874        C  0.10812928  0.41077488  0.80070927     0.30100
F875        F  0.13599213  0.41429542  0.78985551    -0.19300
H876        H  0.09283814  0.45257105  0.78291643     0.18500
H877        H  0.06715282  0.36564154  0.84548464     0.18500
F878        F  0.02466504  0.40438231  0.83963180    -0.19200
C879        C  0.15579796  0.42081675  0.89082725    -0.20700
C880        C  0.17105958  0.39349637  0.89112868    -0.08700
C881        C  0.19250867  0.38823746  0.91341448     0.30100
C882        C  0.19855206  0.41012555  0.93477312    -0.20700
C883        C  0.18261437  0.43707569  0.93489011    -0.08700
C884        C  0.16132536  0.44235432  0.91255362     0.30100
F885        F  0.14605011  0.46846954  0.91156624    -0.19300
H886        H  0.13928335  0.42538109  0.87381877     0.18500
H887        H  0.21475503  0.40550296  0.95203819     0.18500
F888        F  0.20645438  0.36148755  0.91558509    -0.19200
C889        C  0.16064216  0.11738901  0.76598882    -0.20700
C890        C  0.15595252  0.14430406  0.78127184    -0.08700
C891        C  0.15364185  0.17080406  0.76502735     0.30100
C892        C  0.15521255  0.17030657  0.73413350    -0.20700
C893        C  0.15864599  0.14351829  0.71860139    -0.08700
C894        C  0.16221678  0.11696514  0.73482523     0.30100
F895        F  0.16826231  0.09092657  0.72069681    -0.19300
H896        H  0.16376566  0.09685448  0.77820301     0.18500
H897        H  0.15376165  0.19105237  0.72249287     0.18500
F898        F  0.14958167  0.19731156  0.77890258    -0.19200
C899        C  0.17058406  0.23349251  0.86987901    -0.20700
C900        C  0.15059037  0.21703651  0.85259295    -0.08700
C901        C  0.12864432  0.23196304  0.83602322     0.30100
C902        C  0.12733902  0.26306315  0.83618717    -0.20700
C903        C  0.14709185  0.27947324  0.85381468    -0.08700
C904        C  0.16848104  0.26450884  0.87100876     0.30100
F905        F  0.18697616  0.27983399  0.88918752    -0.19300
H906        H  0.18728785  0.22222563  0.88313356     0.18500
H907        H  0.11093871  0.27438175  0.82255631     0.18500
F908        F  0.10866852  0.21648201  0.81961465    -0.19200
C909        C  0.09396390  0.10989178  0.80311524    -0.20700
C910        C  0.11837472  0.10317238  0.82151479    -0.08700
C911        C  0.12100179  0.07455382  0.83376657     0.30100
C912        C  0.09876689  0.05362379  0.82920476    -0.20700
C913        C  0.07357733  0.06075549  0.81223686    -0.08700
C914        C  0.07155000  0.08881230  0.79858901     0.30100
F915        F  0.04663244  0.09677187  0.78348274    -0.19300
H916        H  0.09128961  0.13203035  0.79397381     0.18500
H917        H  0.10067622  0.03209874  0.83988924     0.18500
F918        F  0.14454692  0.06720747  0.85122167    -0.19200
C919        C  0.17903969  0.11541690  0.92378501    -0.20700
C920        C  0.18769784  0.10976763  0.89436448    -0.08700
C921        C  0.20273924  0.08309205  0.88755576     0.30100
C922        C  0.20833605  0.06209794  0.90997262    -0.20700
C923        C  0.19814155  0.06716600  0.93906513    -0.08700
C924        C  0.18404322  0.09427740  0.94596453     0.30100
F925        F  0.17393449  0.09972878  0.97394417    -0.19300
H926        H  0.16701563  0.13565814  0.92925600     0.18500
H927        H  0.21854854  0.04099535  0.90416652     0.18500
F928        F  0.20939773  0.07603412  0.85895796    -0.19200
C929        C  0.11770960  0.19717257  0.91273494    -0.20700
C930        C  0.11197104  0.17601454  0.89038870    -0.08700
C931        C  0.08408225  0.16225450  0.88950328     0.30100
C932        C  0.06298168  0.16840751  0.91139584    -0.20700
C933        C  0.06899323  0.18881805  0.93425000    -0.08700
C934        C  0.09621724  0.20388083  0.93433002     0.30100
F935        F  0.10285934  0.22334992  0.95644941    -0.19300
H936        H  0.13929187  0.20739945  0.91445384     0.18500
H937        H  0.04200487  0.15675339  0.91082175     0.18500
F938        F  0.07738844  0.14238403  0.86775602    -0.19200
C939        C  0.33701384  0.15629979  0.77231250    -0.20700
C940        C  0.36305384  0.15921187  0.78917628    -0.08700
C941        C  0.39026522  0.16347619  0.77444971     0.30100
C942        C  0.39128162  0.16396293  0.74327684    -0.20700
C943        C  0.36520591  0.16050163  0.72645828    -0.08700
C944        C  0.33799680  0.15692243  0.74126852     0.30100
F945        F  0.31241894  0.15309547  0.72574698    -0.19300
H946        H  0.31585311  0.15302172  0.78323808     0.18500
H947        H  0.41235301  0.16741509  0.73224844     0.18500
F948        F  0.41564040  0.16797795  0.79011818    -0.19200
C949        C  0.23912072  0.17031513  0.87246445    -0.20700
C950        C  0.22557061  0.14918079  0.85411393    -0.08700
C951        C  0.24313407  0.13066452  0.83597178     0.30100
C952        C  0.27410286  0.13220426  0.83756109    -0.20700
C953        C  0.28760364  0.15300687  0.85636333    -0.08700
C954        C  0.27000612  0.17263275  0.87318422     0.30100
F955        F  0.28279694  0.19360583  0.89068550    -0.19300
H956        H  0.22575909  0.18505149  0.88611087     0.18500
H957        H  0.28756184  0.11752246  0.82389277     0.18500
F958        F  0.23033478  0.11147436  0.81652625    -0.19200
C959        C  0.30525447  0.11944524  0.91781909    -0.20700
C960        C  0.32745871  0.11410733  0.89640407    -0.08700
C961        C  0.34270715  0.08675949  0.89666447     0.30100
C962        C  0.33708339  0.06596506  0.91883642    -0.20700
C963        C  0.31577274  0.07166755  0.94089666    -0.08700
C964        C  0.29909051  0.09816685  0.93973321     0.30100
F965        F  0.27842506  0.10436818  0.96087866    -0.19300
H966        H  0.29382401  0.14062455  0.91869410     0.18500
H967        H  0.34981902  0.04542783  0.91905167     0.18500
F968        F  0.36368117  0.08037084  0.87588012    -0.19200
C969        C  0.41748768  0.07513488  0.80473098    -0.20700
C970        C  0.44380110  0.07394190  0.82153367    -0.08700
C971        C  0.44932254  0.09628751  0.84269372     0.30100
C972        C  0.42862466  0.11904443  0.84734281    -0.20700
C973        C  0.40171949  0.11969082  0.83153753    -0.08700
C974        C  0.39626973  0.09748451  0.81005863     0.30100
F975        F  0.36974640  0.09608167  0.79577067    -0.19300
H976        H  0.41264608  0.05783483  0.78865787     0.18500
H977        H  0.43329157  0.13585174  0.86399419     0.18500
F978        F  0.47469293  0.09598875  0.85908592    -0.19200
C979        C  0.41379752  0.18096249  0.95264076    -0.20700
C980        C  0.43800494  0.19909267  0.94566165    -0.08700
C981        C  0.43794269  0.21491003  0.91867008     0.30100
C982        C  0.41515379  0.21029540  0.89780510    -0.20700
C983        C  0.39219627  0.19019999  0.90399734    -0.08700
C984        C  0.39095803  0.17673637  0.93216954     0.30100
F985        F  0.36842709  0.15814205  0.93928510    -0.19300
H986        H  0.41323528  0.16898727  0.97357186     0.18500
H987        H  0.41654931  0.22073668  0.87612487     0.18500
F988        F  0.46119683  0.23245642  0.91135722    -0.19200
C989        C  0.38029650  0.35863839  0.74238776    -0.20700
C990        C  0.35392349  0.36252217  0.72608799    -0.08700
C991        C  0.32680104  0.36497786  0.74134324     0.30100
C992        C  0.32619108  0.36429074  0.77240194    -0.20700
C993        C  0.35252962  0.36106283  0.78879094    -0.08700
C994        C  0.37965173  0.35771360  0.77355629     0.30100
F995        F  0.40531839  0.35274688  0.78868232    -0.19300
H996        H  0.40129493  0.35582640  0.73095244     0.18500
H997        H  0.30508685  0.36677121  0.78374515     0.18500
F998        F  0.30091882  0.36880380  0.72622981    -0.19200
C999        C  0.25914923  0.38627023  0.85018653    -0.20700
C1000       C  0.27653806  0.36088089  0.85589213    -0.08700
C1001       C  0.26262048  0.33317024  0.85885255     0.30100
C1002       C  0.23186575  0.33100779  0.85671123    -0.20700
C1003       C  0.21432338  0.35639461  0.85219723    -0.08700
C1004       C  0.22818553  0.38406407  0.84816283     0.30100
F1005       F  0.21188761  0.40869089  0.84155498    -0.19300
H1006       H  0.26957661  0.40762752  0.84682522     0.18500
H1007       H  0.22170418  0.30947079  0.85921056     0.18500
F1008       F  0.27869622  0.30817354  0.86455972    -0.19200
C1009       C  0.35349138  0.27568435  0.83526690    -0.20700
C1010       C  0.34830787  0.29105861  0.86194926    -0.08700
C1011       C  0.34436886  0.27496513  0.88848830     0.30100
C1012       C  0.34687260  0.24394354  0.88834413    -0.20700
C1013       C  0.35299861  0.22866653  0.86172698    -0.08700
C1014       C  0.35584541  0.24476494  0.83508525     0.30100
F1015       F  0.36177288  0.23067950  0.80897149    -0.19300
H1016       H  0.35650866  0.28773815  0.81461251     0.18500
H1017       H  0.34364404  0.23180643  0.90890245     0.18500
F1018       F  0.33758145  0.28916534  0.91432552    -0.19200
C1019       C  0.32154110  0.45506395  0.91352751    -0.20700
C1020       C  0.30453510  0.44858911  0.93879556    -0.08700
C1021       C  0.29005438  0.42104532  0.94058773     0.30100
C1022       C  0.29484303  0.39934724  0.91843958    -0.20700
C1023       C  0.31378085  0.40524698  0.89428759    -0.08700
C1024       C  0.32589277  0.43378259  0.89134033     0.30100
F1025       F  0.34334967  0.44056274  0.86769638    -0.19300
H1026       H  0.33257402  0.47632091  0.91161234     0.18500
H1027       H  0.28544118  0.37742217  0.92116043     0.18500
F1028       F  0.27358395  0.41424239  0.96490135    -0.19200
C1029       C  0.38610663  0.34660051  0.93028932    -0.20700
C1030       C  0.38582368  0.33220951  0.90254835    -0.08700
C1031       C  0.40848501  0.31141649  0.89590366     0.30100
C1032       C  0.43075165  0.30518985  0.91688198    -0.20700
C1033       C  0.43138240  0.32040335  0.94414646    -0.08700
C1034       C  0.40882302  0.34108431  0.95075714     0.30100
F1035       F  0.40903964  0.35631203  0.97690100    -0.19300
H1036       H  0.36907551  0.36283127  0.93579797     0.18500
H1037       H  0.44850773  0.28989499  0.91112175     0.18500
F1038       F  0.41049654  0.29883159  0.86848943    -0.19200
C1039       C  0.38636549  0.42190978  0.81043432    -0.20700
C1040       C  0.39120979  0.39916046  0.83137289    -0.08700
C1041       C  0.41861681  0.39740324  0.84625253     0.30100
C1042       C  0.44008878  0.41895281  0.84163381    -0.20700
C1043       C  0.43499165  0.44230918  0.82162476    -0.08700
C1044       C  0.40831271  0.44330873  0.80534939     0.30100
F1045       F  0.40279405  0.46589245  0.78607886    -0.19300
H1046       H  0.36526334  0.42373799  0.79894984     0.18500
H1047       H  0.46079310  0.41750743  0.85391146     0.18500
F1048       F  0.42457681  0.37493401  0.86555867    -0.19200
C1049       C  0.32839225  0.84346614  0.33969443     0.46100
H1050       H  0.31551442  0.82900018  0.32438053    -0.02900
C1051       C  0.35870271  0.87734370  0.37504580     0.46100
H1052       H  0.37156167  0.89192431  0.39027568    -0.02900
C1053       C  0.34994224  0.86423215  0.32329489    -0.16600
C1054       C  0.30886086  0.86401973  0.35905946    -0.16400
C1055       C  0.34785227  0.82603470  0.36190642    -0.16800
C1056       C  0.36634086  0.88182666  0.34206899    -0.16700
C1057       C  0.32499391  0.88240104  0.37725784    -0.16300
C1058       C  0.36386916  0.84401831  0.38061594    -0.16600
C1059       C  0.37161949  0.64702683  0.37283096     0.46100
H1060       H  0.38546257  0.63317118  0.38799365    -0.02900
C1061       C  0.33903000  0.67932586  0.33770640     0.46100
H1062       H  0.32477840  0.69305626  0.32279958    -0.02900
C1063       C  0.33839384  0.64036657  0.37534320    -0.16600
C1064       C  0.37445071  0.68052519  0.37867178    -0.16400
C1065       C  0.37922245  0.64265798  0.33979660    -0.16800
C1066       C  0.32116593  0.65766431  0.35701523    -0.16700
C1067       C  0.35744697  0.69772945  0.35987925    -0.16300
C1068       C  0.36193753  0.65980741  0.32113963    -0.16600
C1069       C  0.17459014  0.66760081  0.33179191     0.46100
H1070       H  0.18764237  0.68251488  0.31713718    -0.02900
C1071       C  0.14419378  0.63267681  0.36606458     0.46100
H1072       H  0.13129770  0.61781222  0.38090706    -0.02900
C1073       C  0.15511427  0.64523402  0.31471313    -0.16600
C1074       C  0.19392306  0.64821614  0.35242950    -0.16400
C1075       C  0.15303856  0.68427900  0.35266432    -0.16800
C1076       C  0.13926255  0.62667442  0.33282165    -0.16700
C1077       C  0.17785185  0.62996353  0.37064694    -0.16300
C1078       C  0.13669263  0.66579464  0.37042005    -0.16600
C1079       C  0.12848051  0.86271048  0.36463994     0.46100
H1080       H  0.11258935  0.87580626  0.37841963    -0.02900
C1081       C  0.16555627  0.83147810  0.33306371     0.46100
H1082       H  0.18122936  0.81795710  0.31945551    -0.02900
C1083       C  0.16108806  0.87046782  0.37069307    -0.16600
C1084       C  0.12612613  0.82924826  0.36988717    -0.16400
C1085       C  0.12415631  0.86671465  0.33098668    -0.16800
C1086       C  0.18082414  0.85413733  0.35377311    -0.16700
C1087       C  0.14553642  0.81259267  0.35334378    -0.16300
C1088       C  0.14389027  0.85034823  0.31424736    -0.16600
C1089       C  0.17117183  0.82922374  0.16862322     0.46100
H1090       H  0.18609151  0.81594531  0.18326896    -0.02900
C1091       C  0.13666038  0.86090795  0.13487007     0.46100
H1092       H  0.12179646  0.87456467  0.12051349    -0.02900
C1093       C  0.14804866  0.84763280  0.18598412    -0.16600
C1094       C  0.18786778  0.85203669  0.14940928    -0.16400
C1095       C  0.15299671  0.81041493  0.14641348    -0.16800
C1096       C  0.12976661  0.86430426  0.16809419    -0.16700
C1097       C  0.16950545  0.86889789  0.13160211    -0.16300
C1098       C  0.13500641  0.82743750  0.12832370    -0.16600
C1099       C  0.36556993  0.87766750  0.14403975     0.46100
H1100       H  0.37912066  0.89297496  0.13029194    -0.02900
C1101       C  0.33403574  0.84229528  0.17650458     0.46100
H1102       H  0.32050967  0.82713496  0.19044809    -0.02900
C1103       C  0.33203367  0.88206702  0.13980458    -0.16600
C1104       C  0.37142499  0.84470814  0.13725951    -0.16400
C1105       C  0.37128191  0.88125200  0.17755624    -0.16800
C1106       C  0.31527626  0.86311063  0.15667460    -0.16700
C1107       C  0.35517332  0.82586575  0.15488680    -0.16300
C1108       C  0.35408015  0.86308646  0.19481699    -0.16600
C1109       C  0.15136699  0.62899246  0.13509100     0.46100
H1110       H  0.13921372  0.61397232  0.11980445    -0.02900
C1111       C  0.17956192  0.66471484  0.17045878     0.46100
H1112       H  0.19182884  0.67969720  0.18577845    -0.02900
C1113       C  0.18531440  0.62562690  0.13333280    -0.16600
C1114       C  0.14483385  0.66214829  0.12893522    -0.16400
C1115       C  0.14360377  0.62420357  0.16807104    -0.16800
C1116       C  0.20025143  0.64466926  0.15186383    -0.16700
C1117       C  0.16001692  0.68118943  0.14750588    -0.16300
C1118       C  0.15868296  0.64308451  0.18667947    -0.16600
C1119       C  0.34433047  0.67916407  0.17454701     0.46100
H1120       H  0.32938011  0.69306751  0.18857628    -0.02900
C1121       C  0.37907264  0.64678680  0.14166463     0.46100
H1122       H  0.39390668  0.63299724  0.12740237    -0.02900
C1123       C  0.36587827  0.65941425  0.19262462    -0.16600
C1124       C  0.32765798  0.65747486  0.15403808    -0.16400
C1125       C  0.36413224  0.69750478  0.15368716    -0.16800
C1126       C  0.38445629  0.64236736  0.17517246    -0.16700
C1127       C  0.34607406  0.64029240  0.13663969    -0.16300
C1128       C  0.38235304  0.68025703  0.13620756    -0.16600
O1129       O  0.03942478  0.53025609  0.17191417    -0.72300
O1130       O  0.47163954  0.97657648  0.17444400    -0.73300
O1131       O  0.47868450  0.53818813  0.17122208    -0.61900
O1132       O  0.03350808  0.96740475  0.17013107    -0.70300
O1133       O  0.03889545  0.96807165  0.21932249    -0.69900
O1134       O  0.47880262  0.53810762  0.22069590    -0.61100
O1135       O  0.47440271  0.97524955  0.22384760    -0.73600
O1136       O  0.04114562  0.53275596  0.22130628    -0.72400
Cu1137     Cu  0.00545094  0.50258063  0.17191594     1.04600
Cu1138     Cu  0.00782153  0.50255924  0.22476778     1.04300
C1139       C  0.05102830  0.54041755  0.19571610     0.93900
C1140       C  0.46303387  0.96614173  0.19934944     0.93000
C1141       C  0.46996286  0.54921172  0.19597160     0.85200
C1142       C  0.04509926  0.95684523  0.19384295     0.91400
O1143       O  0.47727557  0.53877870  0.34168607    -0.72300
O1144       O  0.02975387  0.96740129  0.33625790    -0.73300
O1145       O  0.03813779  0.53159944  0.33902917    -0.61900
O1146       O  0.46919361  0.97877491  0.34249205    -0.70300
O1147       O  0.46568022  0.97693353  0.29315574    -0.69900
O1148       O  0.03389261  0.53447506  0.28980489    -0.61100
O1149       O  0.02810085  0.96982926  0.28685091    -0.73600
O1150       O  0.47105307  0.53849415  0.29260708    -0.72400
Cu1151     Cu  0.00367186  0.50430806  0.34254592     1.04600
Cu1152     Cu  0.00003526  0.50499058  0.28976396     1.04300
C1153       C  0.46542869  0.54968369  0.31820883     0.93900
C1154       C  0.03755005  0.95751646  0.31077980     0.93000
C1155       C  0.04687254  0.54184572  0.31406201     0.85200
C1156       C  0.45708046  0.96851284  0.31893416     0.91400
O1157       O  0.21227505  0.96508588  0.46850506    -0.72300
O1158       O  0.22607384  0.52688708  0.03140624    -0.73300
O1159       O  0.21664166  0.96507254  0.03183725    -0.61900
O1160       O  0.22304176  0.52836142  0.46750938    -0.70300
O1161       O  0.17476473  0.53708102  0.47301801    -0.69900
O1162       O  0.16791960  0.97250886  0.03377855    -0.61100
O1163       O  0.17718435  0.53295929  0.03485606    -0.73600
O1164       O  0.16382161  0.97399993  0.47149083    -0.72400
Cu1165     Cu  0.22154327  0.49535470  0.99954423     1.04600
Cu1166     Cu  0.16942705  0.50307516  0.00281344     1.04300
C1167       C  0.18574187  0.96000318  0.45986058     0.93900
C1168       C  0.20344967  0.53955830  0.04314761     0.93000
C1169       C  0.19125080  0.95914310  0.04306626     0.85200
C1170       C  0.19953565  0.54302985  0.46070702     0.91400
O1171       O  0.03490143  0.66797512  0.46774466    -0.72300
O1172       O  0.47953897  0.67433935  0.03729086    -0.73300
O1173       O  0.47406424  0.67366926  0.47458463    -0.61900
O1174       O  0.04229876  0.66588148  0.03021607    -0.70300
O1175       O  0.04529190  0.71497008  0.03452227    -0.69900
O1176       O  0.47911229  0.72271802  0.47277511    -0.61100
O1177       O  0.48159286  0.72368721  0.03752352    -0.73600
O1178       O  0.04117460  0.71684821  0.46996009    -0.72400
Cu1179     Cu  0.00845141  0.66849942  0.00164190     1.04600
Cu1180     Cu  0.01296033  0.72100574  0.00362302     1.04300
C1181       C  0.04723685  0.69156561  0.45824791     0.93900
C1182       C  0.47065834  0.69941577  0.04729479     0.93000
C1183       C  0.46574434  0.69900262  0.46476882     0.85200
C1184       C  0.05411224  0.68886746  0.04180360     0.91400
O1185       O  0.28834213  0.54608029  0.47593254    -0.72300
O1186       O  0.28426041  0.98038757  0.04050594    -0.73300
O1187       O  0.29205047  0.54391203  0.03989439    -0.61900
O1188       O  0.28094253  0.98249745  0.47714287    -0.70300
O1189       O  0.33004155  0.97798370  0.47479864    -0.69900
O1190       O  0.34093599  0.53783531  0.03729301    -0.61100
O1191       O  0.33340715  0.97619456  0.03828804    -0.73600
O1192       O  0.33721487  0.53973066  0.47353567    -0.72400
Cu1193     Cu  0.28535395  0.51232613  0.00808270     1.04600
Cu1194     Cu  0.33780474  0.50692073  0.00558391     1.04300
C1195       C  0.31344973  0.55234731  0.46431167     0.93900
C1196       C  0.30862252  0.96886707  0.04976112     0.93000
C1197       C  0.31823621  0.55051741  0.04876882     0.85200
C1198       C  0.30424730  0.97092129  0.46553143     0.91400
O1199       O  0.02735560  0.78722058  0.46947147    -0.72300
O1200       O  0.46819601  0.79439263  0.03896061    -0.73300
O1201       O  0.46370695  0.79091563  0.47514107    -0.61900
O1202       O  0.03171291  0.78595323  0.03324722    -0.70300
O1203       O  0.03539073  0.83511559  0.03109785    -0.69900
O1204       O  0.46868591  0.84002138  0.47372782    -0.61100
O1205       O  0.47211552  0.84353818  0.03667857    -0.73600
O1206       O  0.03106848  0.83647919  0.46914314    -0.72400
Cu1207     Cu  0.99801750  0.78647128  0.00329637     1.04600
Cu1208     Cu  0.00237996  0.83909469  0.00194173     1.04300
C1209       C  0.03892056  0.81098930  0.45928536     0.93900
C1210       C  0.46033182  0.82032928  0.04778972     0.93000
C1211       C  0.45547535  0.81643471  0.46546804     0.85200
C1212       C  0.04447819  0.81007730  0.04101371     0.91400
C1213       C  0.35143216  0.58946431  0.11542450    -0.20700
C1214       C  0.33650920  0.61692803  0.11519035    -0.08700
C1215       C  0.31439769  0.62207492  0.09347113     0.30100
C1216       C  0.30726331  0.59981550  0.07274869    -0.20700
C1217       C  0.32294168  0.57271182  0.07259111    -0.08700
C1218       C  0.34503814  0.56772765  0.09421666     0.30100
F1219       F  0.36059589  0.54177702  0.09479903    -0.19300
H1220       H  0.36848263  0.58494668  0.13190411     0.18500
H1221       H  0.29057632  0.60430110  0.05589838     0.18500
F1222       F  0.30092848  0.64905013  0.09113543    -0.19200
C1223       C  0.39980250  0.67751127  0.08444558    -0.20700
C1224       C  0.40248481  0.69075462  0.11254219    -0.08700
C1225       C  0.42644856  0.70988070  0.11829278     0.30100
C1226       C  0.44815372  0.71440957  0.09631308    -0.20700
C1227       C  0.44620702  0.69944260  0.06890251    -0.08700
C1228       C  0.42147146  0.68159086  0.06290221     0.30100
F1229       F  0.41879251  0.66719931  0.03642306    -0.19300
H1230       H  0.38144015  0.66279916  0.07963300     0.18500
H1231       H  0.46730633  0.72797164  0.10131710     0.18500
F1232       F  0.43004340  0.72225649  0.14564073    -0.19200
C1233       C  0.43541790  0.62151127  0.17124668    -0.20700
C1234       C  0.40775099  0.62107622  0.18558095    -0.08700
C1235       C  0.40190031  0.59818180  0.20618199     0.30100
C1236       C  0.42314241  0.57569606  0.21129736    -0.20700
C1237       C  0.44989515  0.57527713  0.19523468    -0.08700
C1238       C  0.45612144  0.59875476  0.17569449     0.30100
F1239       F  0.48200581  0.59922466  0.16021381    -0.19300
H1240       H  0.44054573  0.63897219  0.15549153     0.18500
H1241       H  0.41787852  0.55758579  0.22623621     0.18500
F1242       F  0.37499255  0.59614859  0.21954971    -0.19200
C1243       C  0.24567649  0.67574074  0.14863440    -0.20700
C1244       C  0.23296084  0.64769910  0.15319534    -0.08700
C1245       C  0.25149013  0.62339895  0.16010534     0.30100
C1246       C  0.28227269  0.62676715  0.16058468    -0.20700
C1247       C  0.29500169  0.65452580  0.15486135    -0.08700
C1248       C  0.27650263  0.67923477  0.14963831     0.30100
F1249       F  0.28827701  0.70644590  0.14446379    -0.19300
H1250       H  0.23169143  0.69486478  0.14388448     0.18500
H1251       H  0.29625487  0.60773561  0.16568053     0.18500
F1252       F  0.23993185  0.59676279  0.16765698    -0.19200
C1253       C  0.09997530  0.69184376  0.11260540    -0.20700
C1254       C  0.12266710  0.67119931  0.10595891    -0.08700
C1255       C  0.12300384  0.65763419  0.07770453     0.30100
C1256       C  0.10095055  0.66415114  0.05685534    -0.20700
C1257       C  0.07832300  0.68460521  0.06347090    -0.08700
C1258       C  0.07804249  0.69870697  0.09142965     0.30100
F1259       F  0.05562228  0.71760051  0.09888297    -0.19300
H1260       H  0.09873884  0.70199720  0.13446602     0.18500
H1261       H  0.10144902  0.65303639  0.03542016     0.18500
F1262       F  0.14464093  0.63799583  0.07007520    -0.19200
C1263       C  0.20466239  0.55285853  0.09660901    -0.20700
C1264       C  0.20706103  0.56176894  0.06683499    -0.08700
C1265       C  0.20776859  0.59219981  0.05996091     0.30100
C1266       C  0.20403987  0.61341512  0.08256981    -0.20700
C1267       C  0.19901542  0.60441925  0.11203869    -0.08700
C1268       C  0.20071038  0.57401653  0.11912451     0.30100
F1269       F  0.19653936  0.56461529  0.14751726    -0.19300
H1270       H  0.20393918  0.52943485  0.10217711     0.20500
H1271       H  0.20273347  0.63675654  0.07675128     0.18500
F1272       F  0.20968379  0.60126546  0.03119491    -0.19200
C1273       C  0.09974530  0.60865971  0.19957781    -0.20700
C1274       C  0.12131381  0.60169277  0.17783784    -0.08700
C1275       C  0.12019922  0.57360494  0.16400997     0.30100
C1276       C  0.09811539  0.55342694  0.17137548    -0.20700
C1277       C  0.07643348  0.56057383  0.19255203    -0.08700
C1278       C  0.07756200  0.58820711  0.20702584     0.30100
F1279       F  0.05594968  0.59632527  0.22644981    -0.19300
H1280       H  0.09909393  0.63044254  0.20980108     0.18500
H1281       H  0.09744822  0.53227910  0.15978792     0.18500
F1282       F  0.13990141  0.56555728  0.14272708    -0.19200
C1283       C  0.35381832  0.77723171  0.12733529    -0.20700
C1284       C  0.35740297  0.79294822  0.15415570    -0.08700
C1285       C  0.36318069  0.77712702  0.18052858     0.30100
C1286       C  0.36561036  0.74614320  0.17997262    -0.20700
C1287       C  0.36249173  0.73043115  0.15315273    -0.08700
C1288       C  0.35631717  0.74617329  0.12677666     0.30100
F1289       F  0.35163949  0.73151170  0.10076643    -0.19300
H1290       H  0.34879880  0.78903664  0.10689805     0.18500
H1291       H  0.37018498  0.73433661  0.20052711     0.18500
F1292       F  0.36718272  0.79168463  0.20672872    -0.19200
C1293       C  0.41416866  0.84504238  0.06478322    -0.20700
C1294       C  0.43671593  0.82411567  0.07018836    -0.08700
C1295       C  0.43687215  0.80834380  0.09720423     0.30100
C1296       C  0.41530386  0.81447835  0.11895684    -0.20700
C1297       C  0.39288671  0.83578862  0.11362331    -0.08700
C1298       C  0.39225024  0.85056937  0.08601311     0.30100
F1299       F  0.37039544  0.87045782  0.07945083    -0.19300
H1300       H  0.41351367  0.85715460  0.04392875     0.18500
H1301       H  0.41665803  0.80324113  0.14024007     0.18500
F1302       F  0.45876211  0.78833995  0.10319013    -0.19200
C1303       C  0.33166493  0.93393462  0.12192660    -0.20700
C1304       C  0.32070240  0.90502284  0.11895725    -0.08700
C1305       C  0.30253155  0.89802212  0.09437485     0.30100
C1306       C  0.29657872  0.91960341  0.07252893    -0.20700
C1307       C  0.30913737  0.94798260  0.07487918    -0.08700
C1308       C  0.32607658  0.95518725  0.10008382     0.30100
F1309       F  0.33822086  0.98256050  0.10296259    -0.19300
H1310       H  0.34566298  0.93971030  0.14070083     0.18500
H1311       H  0.28384157  0.91363209  0.05294719     0.18500
F1312       F  0.29255191  0.86991646  0.09028301    -0.19200
C1313       C  0.42320165  0.89774555  0.17413679    -0.20700
C1314       C  0.39555295  0.90075681  0.18813091    -0.08700
C1315       C  0.39116174  0.92392720  0.20887511     0.30100
C1316       C  0.41394607  0.94448980  0.21424780    -0.20700
C1317       C  0.44089865  0.94225647  0.19867623    -0.08700
C1318       C  0.44554814  0.91832257  0.17911082     0.30100
F1319       F  0.47148651  0.91544341  0.16393170    -0.19300
H1320       H  0.42713359  0.87994011  0.15830110     0.18500
H1321       H  0.40989447  0.96316391  0.22894964     0.18500
F1322       F  0.36442614  0.92794288  0.22224353    -0.19200
C1323       C  0.15895852  0.76150267  0.11924277    -0.20700
C1324       C  0.15505759  0.77736239  0.14598977    -0.08700
C1325       C  0.15393299  0.76151314  0.17289367     0.30100
C1326       C  0.15610748  0.73056395  0.17295415    -0.20700
C1327       C  0.15873196  0.71442610  0.14631745    -0.08700
C1328       C  0.16095808  0.73032006  0.11935171     0.30100
F1329       F  0.16612626  0.71588836  0.09328748    -0.19300
H1330       H  0.16093237  0.77328329  0.09832593     0.18500
H1331       H  0.15551186  0.71932990  0.19401809     0.18500
F1332       F  0.14993580  0.77583960  0.19924610    -0.19200
C1333       C  0.26970673  0.83312519  0.15046060    -0.20700
C1334       C  0.28251836  0.86100486  0.15547176    -0.08700
C1335       C  0.26402964  0.88605855  0.15927002     0.30100
C1336       C  0.23317718  0.88318547  0.15715260    -0.20700
C1337       C  0.22046382  0.85532221  0.15147908    -0.08700
C1338       C  0.23894972  0.83023594  0.14847971     0.30100
F1339       F  0.22730246  0.80305815  0.14275730    -0.19300
H1340       H  0.28363532  0.81359935  0.14751388     0.18500
H1341       H  0.21916706  0.90261032  0.16030016     0.18500
F1342       F  0.27569967  0.91303984  0.16577575    -0.19200
C1343       C  0.11625577  0.83255549  0.07701622    -0.20700
C1344       C  0.11538635  0.81696072  0.10401389    -0.08700
C1345       C  0.09275077  0.79604220  0.10869254     0.30100
C1346       C  0.07053419  0.79215091  0.08707671    -0.20700
C1347       C  0.07025105  0.80973944  0.06123533    -0.08700
C1348       C  0.09373141  0.82945409  0.05607125     0.30100
F1349       F  0.09427354  0.84673574  0.03129860    -0.19300
H1350       H  0.13356420  0.84867310  0.07292235     0.18500
H1351       H  0.05242100  0.77708843  0.09149789     0.18500
F1352       F  0.09062870  0.78132743  0.13496119    -0.19200
C1353       C  0.16196682  0.91953504  0.11098561    -0.20700
C1354       C  0.17855491  0.89302365  0.11092697    -0.08700
C1355       C  0.20082257  0.88901576  0.08922798     0.30100
C1356       C  0.20597279  0.91118818  0.06787909    -0.20700
C1357       C  0.18831168  0.93707120  0.06725636    -0.08700
C1358       C  0.16648338  0.94117672  0.08929612     0.30100
F1359       F  0.14929264  0.96610707  0.08980069    -0.19300
H1360       H  0.14481342  0.92320039  0.12753063     0.18500
H1361       H  0.22270638  0.90747321  0.05093723     0.18500
F1362       F  0.21623496  0.86305617  0.08740441    -0.19200
C1363       C  0.11368756  0.90801310  0.19928467    -0.20700
C1364       C  0.10674761  0.88563499  0.17853958    -0.08700
C1365       C  0.07851881  0.88552095  0.16524229     0.30100
C1366       C  0.05825141  0.90830968  0.17126629    -0.20700
C1367       C  0.06550125  0.93127802  0.19109665    -0.08700
C1368       C  0.09308836  0.93061185  0.20575476     0.30100
F1369       F  0.10095820  0.95293918  0.22446072    -0.19300
H1370       H  0.13552423  0.90879893  0.20938297     0.18500
H1371       H  0.03696602  0.90833312  0.15997747     0.18500
F1372       F  0.07073483  0.86361963  0.14596363    -0.19200
C1373       C  0.17218311  0.85489562  0.23521836    -0.20700
C1374       C  0.14672559  0.84760919  0.21886477    -0.08700
C1375       C  0.12025189  0.84095965  0.23395064     0.30100
C1376       C  0.11927278  0.84212469  0.26504953    -0.20700
C1377       C  0.14467470  0.84978931  0.28137313    -0.08700
C1378       C  0.17119403  0.85610282  0.26628469     0.30100
F1379       F  0.19585119  0.86432829  0.28156520    -0.19300
H1380       H  0.19266255  0.86027018  0.22384078     0.18500
H1381       H  0.09882409  0.83670660  0.27644540     0.18500
F1382       F  0.09557652  0.83286989  0.21863459    -0.19200
C1383       C  0.11269665  0.82230338  0.42257067    -0.20700
C1384       C  0.10562004  0.81770402  0.39255678    -0.08700
C1385       C  0.07708160  0.80787899  0.38473760     0.30100
C1386       C  0.05566312  0.80346307  0.40689712    -0.20700
C1387       C  0.06244658  0.80954499  0.43678384    -0.08700
C1388       C  0.09124837  0.81839700  0.44456206     0.30100
F1389       F  0.09815203  0.82469359  0.47331008    -0.19300
H1390       H  0.13439065  0.83059664  0.42876696     0.18500
H1391       H  0.03332467  0.79722733  0.40058210     0.18500
F1392       F  0.06924478  0.80491496  0.35569093    -0.19200
C1393       C  0.08503429  0.93284913  0.29543401    -0.20700
C1394       C  0.05746265  0.93147588  0.30987558    -0.08700
C1395       C  0.05081266  0.90666811  0.32752473     0.30100
C1396       C  0.07205400  0.88447318  0.33209205    -0.20700
C1397       C  0.10045250  0.88676755  0.31957137    -0.08700
C1398       C  0.10662333  0.91073382  0.30042083     0.30100
F1399       F  0.13418072  0.91427914  0.28883405    -0.19300
H1400       H  0.09065336  0.95217595  0.28229816     0.18500
H1401       H  0.06684185  0.86620454  0.34685045     0.18500
F1402       F  0.02421798  0.90467724  0.34159402    -0.19200
C1403       C  0.15308640  0.92069380  0.39290311    -0.20700
C1404       C  0.16888921  0.89365231  0.39300127    -0.08700
C1405       C  0.19048858  0.88870901  0.41520028     0.30100
C1406       C  0.19652624  0.91079754  0.43632710    -0.20700
C1407       C  0.18033011  0.93759709  0.43644401    -0.08700
C1408       C  0.15851307  0.94238701  0.41451909     0.30100
F1409       F  0.14280311  0.96825093  0.41366553    -0.19300
H1410       H  0.13639599  0.92502138  0.37600831     0.18500
H1411       H  0.21311734  0.90652465  0.45332221     0.18500
F1412       F  0.20483299  0.86216628  0.41733129    -0.19200
C1413       C  0.16510317  0.61826438  0.26707258    -0.20700
C1414       C  0.15478633  0.64378785  0.28193536    -0.08700
C1415       C  0.14486805  0.66831859  0.26542348     0.30100
C1416       C  0.14533896  0.66740666  0.23444033    -0.20700
C1417       C  0.15669918  0.64253275  0.21948245    -0.08700
C1418       C  0.16629513  0.61767586  0.23591536     0.30100
F1419       F  0.17722321  0.59320167  0.22187046    -0.19300
H1420       H  0.17286000  0.59917545  0.27963638     0.18500
H1421       H  0.13617817  0.68585550  0.22217819     0.18500
F1422       F  0.13428352  0.69300360  0.27921364    -0.19200
C1423       C  0.17184785  0.73384939  0.36837893    -0.20700
C1424       C  0.15055515  0.71713223  0.35305027    -0.08700
C1425       C  0.12684873  0.73184940  0.33886790     0.30100
C1426       C  0.12548237  0.76297923  0.33873972    -0.20700
C1427       C  0.14689311  0.77968932  0.35399113    -0.08700
C1428       C  0.16963512  0.76486708  0.36951212     0.30100
F1429       F  0.18904771  0.78025999  0.38658969    -0.19300
H1430       H  0.18965815  0.72279369  0.38026976     0.18500
H1431       H  0.10772455  0.77406321  0.32674502     0.18500
F1432       F  0.10507574  0.71615343  0.32524439    -0.19200
C1433       C  0.09371473  0.61077497  0.30477472    -0.20700
C1434       C  0.11828587  0.60343499  0.32275963    -0.08700
C1435       C  0.12042290  0.57476213  0.33493607     0.30100
C1436       C  0.09764176  0.55436623  0.33061651    -0.20700
C1437       C  0.07241022  0.56208631  0.31394692    -0.08700
C1438       C  0.07078163  0.59023063  0.30045414     0.30100
F1439       F  0.04590086  0.59875658  0.28557234    -0.19300
H1440       H  0.09135457  0.63300706  0.29578322     0.18500
H1441       H  0.09923830  0.53274504  0.34115253     0.18500
F1442       F  0.14409791  0.56682235  0.35197081    -0.19200
C1443       C  0.18133644  0.61580048  0.42364199    -0.20700
C1444       C  0.19004963  0.61034269  0.39419874    -0.08700
C1445       C  0.20531395  0.58377380  0.38735801     0.30100
C1446       C  0.21071596  0.56257307  0.40971455    -0.20700
C1447       C  0.20020400  0.56738910  0.43877689    -0.08700
C1448       C  0.18621020  0.59453319  0.44572807     0.30100
F1449       F  0.17600884  0.59989230  0.47368978    -0.19300
H1450       H  0.16921875  0.63596258  0.42918271     0.18500
H1451       H  0.22104248  0.54153665  0.40386284     0.18500
F1452       F  0.21243420  0.57705725  0.35877545    -0.19200
C1453       C  0.11786656  0.69726742  0.41299047    -0.20700
C1454       C  0.11280878  0.67550404  0.39107173    -0.08700
C1455       C  0.08518450  0.66122315  0.39010692     0.30100
C1456       C  0.06357397  0.66764615  0.41136907    -0.20700
C1457       C  0.06882371  0.68872087  0.43377332    -0.08700
C1458       C  0.09591155  0.70408052  0.43409992     0.30100
F1459       F  0.10194586  0.72401109  0.45598674    -0.19300
H1460       H  0.13921900  0.70801893  0.41463633     0.18500
H1461       H  0.04278894  0.65566472  0.41067335     0.18500
F1462       F  0.07914372  0.64068742  0.36880787    -0.19200
C1463       C  0.33759591  0.65658081  0.27171748    -0.20700
C1464       C  0.36377233  0.65998327  0.28823709    -0.08700
C1465       C  0.39087269  0.66382290  0.27321101     0.30100
C1466       C  0.39164898  0.66344031  0.24204206    -0.20700
C1467       C  0.36543485  0.65946117  0.22558278    -0.08700
C1468       C  0.33833967  0.65626715  0.24069015     0.30100
F1469       F  0.31263268  0.65202688  0.22548901    -0.19300
H1470       H  0.31652841  0.65364172  0.28291111     0.18500
H1471       H  0.41261085  0.66665965  0.23073344     0.18500
F1472       F  0.41635943  0.66867873  0.28858128    -0.19200
C1473       C  0.23982253  0.67158596  0.37197016    -0.20700
C1474       C  0.22653782  0.65065878  0.35315379    -0.08700
C1475       C  0.24437552  0.63299474  0.33444272     0.30100
C1476       C  0.27532940  0.63516292  0.33588063    -0.20700
C1477       C  0.28857522  0.65574037  0.35513931    -0.08700
C1478       C  0.27067624  0.67456692  0.37254615     0.30100
F1479       F  0.28313333  0.69534206  0.39052620    -0.19300
H1480       H  0.22628678  0.68555757  0.38621781     0.18500
H1481       H  0.28898222  0.62094478  0.32192283     0.18500
F1482       F  0.23186223  0.61378654  0.31482776    -0.19200
C1483       C  0.30626674  0.62225414  0.41754040    -0.20700
C1484       C  0.32762274  0.61650606  0.39537286    -0.08700
C1485       C  0.34169915  0.58855746  0.39459771     0.30100
C1486       C  0.33600158  0.56756679  0.41660224    -0.20700
C1487       C  0.31572870  0.57369017  0.43952399    -0.08700
C1488       C  0.29999594  0.60080672  0.43930276     0.30100
F1489       F  0.28028110  0.60739460  0.46123298    -0.19300
H1490       H  0.29567468  0.64383391  0.41908950     0.18500
H1491       H  0.34795492  0.54657415  0.41606957     0.18500
F1492       F  0.36168489  0.58179234  0.37297325    -0.19200
C1493       C  0.41887777  0.57661063  0.30377185    -0.20700
C1494       C  0.44485090  0.57518979  0.32106769    -0.08700
C1495       C  0.45000586  0.59729946  0.34256903     0.30100
C1496       C  0.42921536  0.62000863  0.34706056    -0.20700
C1497       C  0.40254006  0.62078781  0.33082682    -0.08700
C1498       C  0.39752915  0.59882969  0.30898370     0.30100
F1499       F  0.37129717  0.59747320  0.29417839    -0.19300
H1500       H  0.41433239  0.55950678  0.28740376     0.18500
H1501       H  0.43363575  0.63667538  0.36392177     0.18500
F1502       F  0.47506620  0.59683087  0.35943905    -0.19200
C1503       C  0.41553764  0.68217139  0.45141454    -0.20700
C1504       C  0.43998014  0.70000323  0.44458530    -0.08700
C1505       C  0.44057325  0.71534093  0.41730389     0.30100
C1506       C  0.41791840  0.71081965  0.39624479    -0.20700
C1507       C  0.39447843  0.69129817  0.40251982    -0.08700
C1508       C  0.39288474  0.67802768  0.43075608     0.30100
F1509       F  0.37005304  0.65981039  0.43785969    -0.19300
H1510       H  0.41454693  0.67048078  0.47248941     0.18500
H1511       H  0.41965256  0.72099949  0.37446225     0.18500
F1512       F  0.46417140  0.73247422  0.41005199    -0.19200
C1513       C  0.37951762  0.85804929  0.24433810    -0.20700
C1514       C  0.35356137  0.86335429  0.22776635    -0.08700
C1515       C  0.32671466  0.86893936  0.24272698     0.30100
C1516       C  0.32592931  0.86936674  0.27380941    -0.20700
C1517       C  0.35185731  0.86435240  0.29041452    -0.08700
C1518       C  0.37869994  0.85841865  0.27552257     0.30100
F1519       F  0.40382146  0.85214516  0.29109328    -0.19300
H1520       H  0.40027826  0.85326560  0.23309562     0.18500
H1521       H  0.30506282  0.87387640  0.28500579     0.18500
F1522       F  0.30139727  0.87473357  0.22726070    -0.19200
C1523       C  0.25831836  0.88788268  0.35393714    -0.20700
C1524       C  0.27599712  0.86235120  0.35802349    -0.08700
C1525       C  0.26227145  0.83445020  0.35953929     0.30100
C1526       C  0.23152927  0.83216239  0.35717167    -0.20700
C1527       C  0.21364548  0.85757694  0.35424919    -0.08700
C1528       C  0.22733396  0.88556543  0.35193845     0.30100
F1529       F  0.21090679  0.91046078  0.34684756    -0.19300
H1530       H  0.26852277  0.90949394  0.35170660     0.18500
H1531       H  0.22170239  0.81039399  0.35805557     0.18500
F1532       F  0.27853275  0.80931125  0.36398195    -0.19200
C1533       C  0.35477186  0.77812201  0.33483665    -0.20700
C1534       C  0.34945885  0.79306760  0.36176703    -0.08700
C1535       C  0.34639838  0.77647772  0.38813806     0.30100
C1536       C  0.34955614  0.74552731  0.38755850    -0.20700
C1537       C  0.35547647  0.73064198  0.36069248    -0.08700
C1538       C  0.35780524  0.74718400  0.33423473     0.30100
F1539       F  0.36371030  0.73351528  0.30789061    -0.19300
H1540       H  0.35725324  0.79052601  0.31431481     0.18500
H1541       H  0.34676248  0.73310201  0.40800688     0.18500
F1542       F  0.33972008  0.79009905  0.41430558    -0.19200
C1543       C  0.31791679  0.95698850  0.41431427    -0.20700
C1544       C  0.30243016  0.94999641  0.44040195    -0.08700
C1545       C  0.29018911  0.92151571  0.44361914     0.30100
C1546       C  0.29554562  0.89964079  0.42181746    -0.20700
C1547       C  0.31296243  0.90623487  0.39673399    -0.08700
C1548       C  0.32303037  0.93540858  0.39259155     0.30100
F1549       F  0.33927727  0.94262097  0.36822129    -0.19300
H1550       H  0.32743464  0.97887966  0.41149956     0.18500
H1551       H  0.28782313  0.87718440  0.42542992     0.18500
F1552       F  0.27550373  0.91417226  0.46892000    -0.19200
C1553       C  0.38458082  0.84543107  0.43185339    -0.20700
C1554       C  0.38591856  0.83366758  0.40296392    -0.08700
C1555       C  0.40944847  0.81426280  0.39532452     0.30100
C1556       C  0.43121242  0.80692623  0.41645892    -0.20700
C1557       C  0.43019997  0.81953227  0.44501321    -0.08700
C1558       C  0.40658699  0.83858423  0.45268328     0.30100
F1559       F  0.40521939  0.85107936  0.48020826    -0.19300
H1560       H  0.36674239  0.86049063  0.43807806     0.18500
H1561       H  0.44976789  0.79288596  0.41001822     0.18500
F1562       F  0.41255336  0.80406676  0.36702082    -0.19200
C1563       C  0.38555286  0.92472874  0.31147674    -0.20700
C1564       C  0.39023191  0.90261422  0.33317081    -0.08700
C1565       C  0.41745745  0.90166405  0.34850227     0.30100
C1566       C  0.43897078  0.92304916  0.34323784    -0.20700
C1567       C  0.43416363  0.94556314  0.32222101    -0.08700
C1568       C  0.40750836  0.94604674  0.30586795     0.30100
F1569       F  0.40202886  0.96805809  0.28593109    -0.19300
H1570       H  0.36457995  0.92612787  0.29971046     0.18500
H1571       H  0.45956860  0.92204476  0.35573223     0.18500
F1572       F  0.42336448  0.88001517  0.36872963    -0.19200
C1573       C  0.32890974  0.84152087  0.83969859     0.46100
H1574       H  0.31596667  0.82672876  0.82475937    -0.02900
C1575       C  0.35932705  0.87600513  0.87428018     0.46100
H1576       H  0.37230715  0.89093912  0.88904866    -0.02900
C1577       C  0.35087028  0.86144788  0.82281351    -0.16600
C1578       C  0.30946881  0.86276891  0.85828681    -0.16400
C1579       C  0.34789115  0.82463062  0.86270371    -0.16800
C1580       C  0.36726435  0.87931953  0.84128245    -0.16700
C1581       C  0.32566121  0.88148519  0.87608757    -0.16300
C1582       C  0.36407162  0.84288270  0.88100646    -0.16600
C1583       C  0.37138999  0.64654099  0.87491305     0.46100
H1584       H  0.38558473  0.63293416  0.88997588    -0.02900
C1585       C  0.33799246  0.67820962  0.83994302     0.46100
H1586       H  0.32342624  0.69171788  0.82513413    -0.02900
C1587       C  0.33834790  0.63897776  0.87713493    -0.16600
C1588       C  0.37312957  0.68002966  0.88121132    -0.16400
C1589       C  0.37919634  0.64270967  0.84181945    -0.16800
C1590       C  0.32070812  0.65589207  0.85888669    -0.16700
C1591       C  0.35569009  0.69680778  0.86249314    -0.16300
C1592       C  0.36151189  0.65957023  0.82325811    -0.16600
C1593       C  0.17557163  0.66585932  0.83132796     0.46100
H1594       H  0.18965417  0.68055381  0.81744647    -0.02900
C1595       C  0.14319995  0.63154469  0.86433345     0.46100
H1596       H  0.12946233  0.61689110  0.87861769    -0.02900
C1597       C  0.15630126  0.64401387  0.81332474    -0.16600
C1598       C  0.19367536  0.64602879  0.85253761    -0.16400
C1599       C  0.15364013  0.68290547  0.85142067    -0.16800
C1600       C  0.13943591  0.62572669  0.83086241    -0.16700
C1601       C  0.17660051  0.62810955  0.87010314    -0.16300
C1602       C  0.13634624  0.66481139  0.86862861    -0.16600
C1603       C  0.12956734  0.86080453  0.86631420     0.46100
H1604       H  0.11382638  0.87368728  0.88046245    -0.02900
C1605       C  0.16620938  0.83008298  0.83375369     0.46100
H1606       H  0.18175384  0.81671156  0.81985612    -0.02900
C1607       C  0.16220311  0.86872725  0.87187739    -0.16600
C1608       C  0.12745558  0.82724992  0.87119907    -0.16400
C1609       C  0.12478351  0.86520232  0.83276540    -0.16800
C1610       C  0.18166216  0.85255154  0.85452102    -0.16700
C1611       C  0.14659537  0.81094169  0.85404336    -0.16300
C1612       C  0.14421836  0.84904639  0.81544819    -0.16600
C1613       C  0.17001519  0.82972620  0.66944637     0.46100
H1614       H  0.18429740  0.81572202  0.68406911    -0.02900
C1615       C  0.13650066  0.86240591  0.63556692     0.46100
H1616       H  0.12227929  0.87656731  0.62104605    -0.02900
C1617       C  0.14694686  0.84840593  0.68677324    -0.16600
C1618       C  0.18743652  0.85240774  0.65070717    -0.16400
C1619       C  0.15187668  0.81169667  0.64665784    -0.16800
C1620       C  0.12912992  0.86559206  0.66875772    -0.16700
C1621       C  0.16952494  0.86969879  0.63288237    -0.16300
C1622       C  0.13431224  0.82907826  0.62862193    -0.16600
C1623       C  0.36557900  0.87750481  0.64333056     0.46100
H1624       H  0.37920929  0.89281740  0.62967778    -0.02900
C1625       C  0.33423534  0.84195647  0.67569143     0.46100
H1626       H  0.32086633  0.82662071  0.68958896    -0.02900
C1627       C  0.33198870  0.88172973  0.63892666    -0.16600
C1628       C  0.37177140  0.84461694  0.63667034    -0.16400
C1629       C  0.37116814  0.88120655  0.67682300    -0.16800
C1630       C  0.31530040  0.86259384  0.65578469    -0.16700
C1631       C  0.35561742  0.82568784  0.65425300    -0.16300
C1632       C  0.35407028  0.86290718  0.69408683    -0.16600
C1633       C  0.15289169  0.63131757  0.63263375     0.46100
H1634       H  0.14113079  0.61636495  0.61704997    -0.02900
C1635       C  0.18023297  0.66715588  0.66852645     0.46100
H1636       H  0.19215063  0.68247549  0.68379130    -0.02900
C1637       C  0.18686668  0.62843780  0.63125287    -0.16600
C1638       C  0.14594193  0.66435248  0.62660297    -0.16400
C1639       C  0.14493229  0.62604466  0.66555101    -0.16800
C1640       C  0.20132795  0.64756435  0.65001437    -0.16700
C1641       C  0.16037917  0.68330160  0.64566300    -0.16300
C1642       C  0.15993059  0.64481505  0.68460974    -0.16600
C1643       C  0.34525907  0.67985346  0.67592314     0.46100
H1644       H  0.33029383  0.69412445  0.68957195    -0.02900
C1645       C  0.38000647  0.64651005  0.64397284     0.46100
H1646       H  0.39499209  0.63224695  0.63034288    -0.02900
C1647       C  0.36629373  0.66026130  0.69460525    -0.16600
C1648       C  0.32860636  0.65799567  0.65559410    -0.16400
C1649       C  0.36551637  0.69755265  0.65487391    -0.16800
C1650       C  0.38480887  0.64280194  0.67765175    -0.16700
C1651       C  0.34697193  0.64032679  0.63858869    -0.16300
C1652       C  0.38371540  0.67981831  0.63777109    -0.16600
O1653       O  0.04038075  0.53117821  0.66819486    -0.72300
O1654       O  0.47162434  0.97658046  0.67276063    -0.73300
O1655       O  0.47759066  0.53958301  0.67535874    -0.61900
O1656       O  0.03265436  0.96893380  0.66921827    -0.70300
O1657       O  0.03743559  0.96986082  0.71844826    -0.69900
O1658       O  0.47790131  0.53867141  0.72485537    -0.61100
O1659       O  0.47453577  0.97528560  0.72216339    -0.73600
O1660       O  0.04257007  0.53386600  0.71754633    -0.72400
Cu1661     Cu  0.00608119  0.50380663  0.66873535     1.04600
Cu1662     Cu  0.00910088  0.50388628  0.72153070     1.04300
C1663       C  0.05219963  0.54147903  0.69184223     0.93900
C1664       C  0.46302445  0.96623649  0.69771404     0.93000
C1665       C  0.46905052  0.55016072  0.70035135     0.85200
C1666       C  0.04393725  0.95843535  0.69311371     0.91400
O1667       O  0.47646047  0.53826634  0.84394079    -0.72300
O1668       O  0.03160368  0.96794362  0.83757257    -0.73300
O1669       O  0.03987167  0.52979902  0.83591626    -0.61900
O1670       O  0.47014045  0.97496293  0.84180911    -0.70300
O1671       O  0.46649766  0.97422273  0.79243850    -0.69900
O1672       O  0.03481842  0.53341339  0.78680880    -0.61100
O1673       O  0.03049593  0.96924810  0.78809364    -0.73600
O1674       O  0.47102587  0.53809538  0.79478013    -0.72400
Cu1675     Cu  0.00496835  0.50311716  0.83966763     1.04600
Cu1676     Cu  0.00065043  0.50439029  0.78694492     1.04300
C1677       C  0.46499809  0.54926937  0.82030211     0.93900
C1678       C  0.03961437  0.95746741  0.81240715     0.93000
C1679       C  0.04825032  0.54032819  0.81094296     0.85200
C1680       C  0.45818436  0.96504548  0.81803725     0.91400
O1681       O  0.21287345  0.96550608  0.96843632    -0.72300
O1682       O  0.22795598  0.52798854  0.53127720    -0.73300
O1683       O  0.21723186  0.96409389  0.53181413    -0.61900
O1684       O  0.22187357  0.52741755  0.96763785    -0.70300
O1685       O  0.17332103  0.53490870  0.97257551    -0.69900
O1686       O  0.16860107  0.97192924  0.53483824    -0.61100
O1687       O  0.17924376  0.53501349  0.53540823    -0.73600
O1688       O  0.16433693  0.97417189  0.97043362    -0.72400
Cu1689     Cu  0.22227319  0.49647420  0.49963765     1.04600
Cu1690     Cu  0.17038702  0.50534820  0.50355941     1.04300
C1691       C  0.18653628  0.96017076  0.95933550     0.93900
C1692       C  0.20574440  0.54104849  0.54335221     0.93000
C1693       C  0.19204254  0.95841148  0.54361231     0.85200
C1694       C  0.19807414  0.54151491  0.96064215     0.91400
O1695       O  0.03668585  0.66838620  0.96773530    -0.72300
O1696       O  0.47979454  0.67239358  0.53635206    -0.73300
O1697       O  0.47341754  0.67541184  0.97589252    -0.61900
O1698       O  0.04224407  0.66643078  0.52977503    -0.70300
O1699       O  0.04446957  0.71562233  0.53342011    -0.69900
O1700       O  0.47831222  0.72445908  0.97389907    -0.61100
O1701       O  0.48171947  0.72172028  0.53668655    -0.73600
O1702       O  0.04353356  0.71714316  0.97046729    -0.72400
Cu1703     Cu  0.00742204  0.66802994  0.50227009     1.04600
Cu1704     Cu  0.01124674  0.72062278  0.50353145     1.04300
C1705       C  0.04918309  0.69193227  0.95836616     0.93900
C1706       C  0.47092240  0.69741283  0.54656755     0.93000
C1707       C  0.46472348  0.70070436  0.96631956     0.85200
C1708       C  0.05417329  0.68978496  0.54048245     0.91400
O1709       O  0.28852881  0.54385753  0.97626852    -0.72300
O1710       O  0.28460211  0.98187605  0.54107330    -0.73300
O1711       O  0.29226939  0.54618282  0.53983372    -0.61900
O1712       O  0.28184902  0.98059328  0.97650438    -0.70300
O1713       O  0.33103036  0.97661789  0.97505912    -0.69900
O1714       O  0.34108442  0.53986545  0.53675122    -0.61100
O1715       O  0.33364454  0.97721282  0.53791784    -0.73600
O1716       O  0.33751523  0.53802872  0.97436536    -0.72400
Cu1717     Cu  0.28506051  0.51458488  0.50804630     1.04600
Cu1718     Cu  0.33741723  0.50879676  0.50522961     1.04300
C1719       C  0.31370583  0.55042388  0.96502594     0.93900
C1720       C  0.30899602  0.97002020  0.54980234     0.93000
C1721       C  0.31856884  0.55253026  0.54859373     0.85200
C1722       C  0.30548085  0.96930408  0.96529354     0.91400
O1723       O  0.02791467  0.78457264  0.96981542    -0.72300
O1724       O  0.46785467  0.79356672  0.53884384    -0.73300
O1725       O  0.46544974  0.79318078  0.97514822    -0.61900
O1726       O  0.03112269  0.78818527  0.53298604    -0.70300
O1727       O  0.03464228  0.83737186  0.53118680    -0.69900
O1728       O  0.47014611  0.84231855  0.97454627    -0.61100
O1729       O  0.47275287  0.84258260  0.53571783    -0.73600
O1730       O  0.03179439  0.83381143  0.96914292    -0.72400
Cu1731     Cu  0.99742870  0.78875524  0.50295108     1.04600
Cu1732     Cu  0.00159027  0.84139800  0.50197527     1.04300
C1733       C  0.03964014  0.80822040  0.95954691     0.93900
C1734       C  0.46078799  0.81978077  0.54746791     0.93000
C1735       C  0.45716832  0.81877944  0.96573803     0.85200
C1736       C  0.04381779  0.81229770  0.54094032     0.91400
C1737       C  0.35212903  0.58986428  0.61614883    -0.20700
C1738       C  0.33728371  0.61738157  0.61663415    -0.08700
C1739       C  0.31525872  0.62311259  0.59493267     0.30100
C1740       C  0.30801301  0.60137279  0.57370012    -0.20700
C1741       C  0.32359608  0.57424929  0.57283711    -0.08700
C1742       C  0.34571879  0.56869719  0.59432683     0.30100
F1743       F  0.36126456  0.54273305  0.59420970    -0.19300
H1744       H  0.36915232  0.58487012  0.63251965     0.18500
H1745       H  0.29132446  0.60632133  0.55698120     0.18500
F1746       F  0.30203730  0.65022873  0.59299863    -0.19200
C1747       C  0.40117230  0.67497291  0.58598490    -0.20700
C1748       C  0.40371269  0.68953543  0.61347331    -0.08700
C1749       C  0.42726833  0.70949656  0.61800496     0.30100
C1750       C  0.44863870  0.71357101  0.59553308    -0.20700
C1751       C  0.44684411  0.69736493  0.56878419    -0.08700
C1752       C  0.42251403  0.67861897  0.56397600     0.30100
F1753       F  0.41976921  0.66316115  0.53811157    -0.19300
H1754       H  0.38308896  0.65970138  0.58195937     0.18500
H1755       H  0.46740861  0.72793240  0.59965576     0.18500
F1756       F  0.43077147  0.72332620  0.64465507    -0.19200
C1757       C  0.43620190  0.62324416  0.67699001    -0.20700
C1758       C  0.40755875  0.62171297  0.68900103    -0.08700
C1759       C  0.40038529  0.59806341  0.70820154     0.30100
C1760       C  0.42139697  0.57559824  0.71398414    -0.20700
C1761       C  0.44929562  0.57627245  0.70009754    -0.08700
C1762       C  0.45686446  0.60070111  0.68233297     0.30100
F1763       F  0.48395665  0.60211366  0.66917494    -0.19300
H1764       H  0.44213492  0.64134511  0.66228548     0.18500
H1765       H  0.41518902  0.55670287  0.72751146     0.18500
F1766       F  0.37252318  0.59535825  0.71931020    -0.19200
C1767       C  0.24726835  0.67782661  0.64797036    -0.20700
C1768       C  0.23393998  0.65011017  0.65255996    -0.08700
C1769       C  0.25172776  0.62559775  0.66056514     0.30100
C1770       C  0.28253848  0.62835281  0.66184200    -0.20700
C1771       C  0.29593401  0.65573946  0.65592286    -0.08700
C1772       C  0.27809813  0.68073399  0.64983125     0.30100
F1773       F  0.29056476  0.70759063  0.64446749    -0.19300
H1774       H  0.23378189  0.69710095  0.64245205     0.18500
H1775       H  0.29601577  0.60914554  0.66759942     0.18500
F1776       F  0.23936759  0.59934919  0.66824115    -0.19200
C1777       C  0.10230993  0.69523090  0.60924691    -0.20700
C1778       C  0.12426313  0.67360835  0.60319667    -0.08700
C1779       C  0.12393197  0.65911775  0.57536920     0.30100
C1780       C  0.10143472  0.66516620  0.55480646    -0.20700
C1781       C  0.07933239  0.68631861  0.56114054    -0.08700
C1782       C  0.08033107  0.70194901  0.58818884     0.30100
F1783       F  0.05885943  0.72208398  0.59513323    -0.19300
H1784       H  0.10129435  0.70607980  0.63074403     0.18500
H1785       H  0.10110917  0.65308507  0.53390031     0.18500
F1786       F  0.14516497  0.63888361  0.56798621    -0.19200
C1787       C  0.20551633  0.55475532  0.59662802    -0.20700
C1788       C  0.21002023  0.56315758  0.56696025    -0.08700
C1789       C  0.21273685  0.59339595  0.55982571     0.30100
C1790       C  0.20822692  0.61507626  0.58183792    -0.20700
C1791       C  0.20110888  0.60665251  0.61102596    -0.08700
C1792       C  0.20137376  0.57636088  0.61863656     0.30100
F1793       F  0.19544857  0.56761495  0.64693362    -0.19300
H1794       H  0.20328733  0.53148206  0.60238705     0.20500
H1795       H  0.20796171  0.63834584  0.57563960     0.18500
F1796       F  0.21710841  0.60190829  0.53117172    -0.19200
C1797       C  0.10135661  0.60949473  0.69699245    -0.20700
C1798       C  0.12239932  0.60333525  0.67451417    -0.08700
C1799       C  0.12049800  0.57592299  0.65932298     0.30100
C1800       C  0.09837411  0.55565194  0.66629050    -0.20700
C1801       C  0.07741882  0.56190429  0.68843121    -0.08700
C1802       C  0.07920093  0.58886601  0.70408776     0.30100
F1803       F  0.05830365  0.59618199  0.72456756    -0.19300
H1804       H  0.10129003  0.63073948  0.70833564     0.18500
H1805       H  0.09723060  0.53505600  0.65377895     0.18500
F1806       F  0.13950682  0.56846013  0.63721064    -0.19200
C1807       C  0.35471654  0.77673047  0.62735737    -0.20700
C1808       C  0.35839491  0.79283432  0.65392459    -0.08700
C1809       C  0.36459317  0.77745717  0.68047061     0.30100
C1810       C  0.36733080  0.74651294  0.68031925    -0.20700
C1811       C  0.36402259  0.73041372  0.65376333    -0.08700
C1812       C  0.35739019  0.74568525  0.62724058     0.30100
F1813       F  0.35229185  0.73055529  0.60158466    -0.19300
H1814       H  0.34935961  0.78821240  0.60682175     0.18500
H1815       H  0.37214734  0.73502375  0.70100339     0.18500
F1816       F  0.36857062  0.79239423  0.70646102    -0.19200
C1817       C  0.41527379  0.84533367  0.56471899    -0.20700
C1818       C  0.43766891  0.82428734  0.57019162    -0.08700
C1819       C  0.43777788  0.80860042  0.59725390     0.30100
C1820       C  0.41608159  0.81471211  0.61887249    -0.20700
C1821       C  0.39360100  0.83590479  0.61332935    -0.08700
C1822       C  0.39323243  0.85082936  0.58579337     0.30100
F1823       F  0.37142644  0.87072409  0.57908090    -0.19300
H1824       H  0.41469771  0.85740073  0.54383846     0.18500
H1825       H  0.41732347  0.80347879  0.64016257     0.18500
F1826       F  0.45963626  0.78858107  0.60333019    -0.19200
C1827       C  0.33375129  0.93341307  0.62060880    -0.20700
C1828       C  0.32081959  0.90523586  0.61843787    -0.08700
C1829       C  0.30078315  0.89952214  0.59494994     0.30100
C1830       C  0.29499751  0.92152047  0.57342263    -0.20700
C1831       C  0.30974431  0.94890238  0.57478399    -0.08700
C1832       C  0.32859064  0.95488266  0.59890796     0.30100
F1833       F  0.34291018  0.98126159  0.60089120    -0.19300
H1834       H  0.34900459  0.93840844  0.63860442     0.18500
H1835       H  0.28061626  0.91650787  0.55473343     0.18500
F1836       F  0.28860065  0.87222904  0.59151042    -0.19200
C1837       C  0.42329001  0.89726512  0.67383127    -0.20700
C1838       C  0.39540907  0.90081391  0.68725942    -0.08700
C1839       C  0.39069589  0.92472234  0.70703406     0.30100
C1840       C  0.41346077  0.94538403  0.71213479    -0.20700
C1841       C  0.44073618  0.94248968  0.69722347    -0.08700
C1842       C  0.44564826  0.91791878  0.67853529     0.30100
F1843       F  0.47187374  0.91444598  0.66397631    -0.19300
H1844       H  0.42739656  0.87895476  0.65862886     0.18500
H1845       H  0.40920546  0.96455584  0.72613378     0.18500
F1846       F  0.36368662  0.92924861  0.71967682    -0.19200
C1847       C  0.16411126  0.76395126  0.62001831    -0.20700
C1848       C  0.15358394  0.77885624  0.64546912    -0.08700
C1849       C  0.14493774  0.76231482  0.67038237     0.30100
C1850       C  0.14645845  0.73136570  0.66971120    -0.20700
C1851       C  0.15789718  0.71628086  0.64490409    -0.08700
C1852       C  0.16655578  0.73280384  0.61979429     0.30100
F1853       F  0.17755929  0.71886220  0.59530652    -0.19300
H1854       H  0.17093550  0.77648445  0.60062896     0.18500
H1855       H  0.13763258  0.71914371  0.68833218     0.18500
F1856       F  0.13407191  0.77611121  0.69502848    -0.19200
C1857       C  0.26931239  0.83261833  0.65141562    -0.20700
C1858       C  0.28245102  0.86057038  0.65523761    -0.08700
C1859       C  0.26415669  0.88578435  0.65880922     0.30100
C1860       C  0.23325909  0.88305961  0.65738622    -0.20700
C1861       C  0.22017191  0.85517923  0.65270262    -0.08700
C1862       C  0.23845163  0.82986594  0.65018406     0.30100
F1863       F  0.22653783  0.80260170  0.64555456    -0.19300
H1864       H  0.28304873  0.81291117  0.64878238     0.18500
H1865       H  0.21949671  0.90269580  0.66026282     0.18500
F1866       F  0.27606555  0.91286131  0.66436674    -0.19200
C1867       C  0.11568983  0.83448575  0.57719309    -0.20700
C1868       C  0.11470410  0.81883957  0.60415986    -0.08700
C1869       C  0.09191308  0.79804478  0.60872934     0.30100
C1870       C  0.06966297  0.79438812  0.58711168    -0.20700
C1871       C  0.06957893  0.81188818  0.56123125    -0.08700
C1872       C  0.09322426  0.83143086  0.55612161     0.30100
F1873       F  0.09399953  0.84855294  0.53124960    -0.19300
H1874       H  0.13309017  0.85052062  0.57317596     0.18500
H1875       H  0.05134468  0.77959486  0.59157059     0.18500
F1876       F  0.08953735  0.78334340  0.63497132    -0.19200
C1877       C  0.16530709  0.92116258  0.61377945    -0.20700
C1878       C  0.17933193  0.89330688  0.61215683    -0.08700
C1879       C  0.19933449  0.88747628  0.58876056     0.30100
C1880       C  0.20466590  0.90924034  0.56704631    -0.20700
C1881       C  0.18948405  0.93662837  0.56804513    -0.08700
C1882       C  0.17017082  0.94259158  0.59194999     0.30100
F1883       F  0.15573118  0.96912198  0.59405796    -0.19300
H1884       H  0.14980346  0.92600687  0.63162339     0.18500
H1885       H  0.21943223  0.90416621  0.54867035     0.18500
F1886       F  0.21211897  0.86022061  0.58580555    -0.19200
C1887       C  0.11198320  0.90875509  0.70046151    -0.20700
C1888       C  0.10586632  0.88696889  0.67881638    -0.08700
C1889       C  0.07823479  0.88752316  0.66423946     0.30100
C1890       C  0.05787752  0.91032399  0.66994394    -0.20700
C1891       C  0.06434553  0.93273126  0.69068390    -0.08700
C1892       C  0.09123895  0.93137813  0.70659079     0.30100
F1893       F  0.09837444  0.95308231  0.72630335    -0.19300
H1894       H  0.13332509  0.90907971  0.71159800     0.18500
H1895       H  0.03712813  0.91079389  0.65768648     0.18500
F1896       F  0.07111413  0.86627922  0.64397757    -0.19200
C1897       C  0.17181025  0.85294109  0.73600308    -0.20700
C1898       C  0.14566985  0.84816064  0.71974747    -0.08700
C1899       C  0.11892433  0.84325350  0.73508406     0.30100
C1900       C  0.11842665  0.84374265  0.76624442    -0.20700
C1901       C  0.14455712  0.84897190  0.78246226    -0.08700
C1902       C  0.17131773  0.85343154  0.76709943     0.30100
F1903       F  0.19683248  0.85914115  0.78213424    -0.19300
H1904       H  0.19257546  0.85686106  0.72453510     0.18500
H1905       H  0.09773062  0.83963055  0.77774942     0.18500
F1906       F  0.09349178  0.83735357  0.72000069    -0.19200
C1907       C  0.11369638  0.82007703  0.92378029    -0.20700
C1908       C  0.10706249  0.81520445  0.89371173    -0.08700
C1909       C  0.07891367  0.80452035  0.88562488     0.30100
C1910       C  0.05726029  0.79995260  0.90752878    -0.20700
C1911       C  0.06349879  0.80655246  0.93742193    -0.08700
C1912       C  0.09207218  0.81584187  0.94552344     0.30100
F1913       F  0.09853380  0.82230351  0.97433688    -0.19300
H1914       H  0.13513725  0.82884668  0.93019472     0.18500
H1915       H  0.03513243  0.79323732  0.90097453     0.18500
F1916       F  0.07161493  0.80093613  0.85651007    -0.19200
C1917       C  0.08715598  0.93251898  0.79814912    -0.20700
C1918       C  0.05940285  0.93139194  0.81222911    -0.08700
C1919       C  0.05228246  0.90673242  0.82989615     0.30100
C1920       C  0.07312830  0.88417167  0.83448663    -0.20700
C1921       C  0.10155951  0.88602570  0.82197869    -0.08700
C1922       C  0.10834604  0.91010208  0.80321800     0.30100
F1923       F  0.13609653  0.91332493  0.79198556    -0.19300
H1924       H  0.09316350  0.95179789  0.78511770     0.18500
H1925       H  0.06754592  0.86585415  0.84905951     0.18500
F1926       F  0.02554473  0.90512413  0.84374270    -0.19200
C1927       C  0.15403601  0.91928259  0.89322346    -0.20700
C1928       C  0.17023007  0.89247133  0.89356164    -0.08700
C1929       C  0.19238879  0.88837565  0.91538626     0.30100
C1930       C  0.19832921  0.91094269  0.93607177    -0.20700
C1931       C  0.18159373  0.93742957  0.93606935    -0.08700
C1932       C  0.15943001  0.94145797  0.91434460     0.30100
F1933       F  0.14322058  0.96700412  0.91327924    -0.19300
H1934       H  0.13698830  0.92303811  0.87655609     0.18500
H1935       H  0.21519806  0.90722452  0.95290735     0.18500
F1936       F  0.20731698  0.86217088  0.91768970    -0.19200
C1937       C  0.16139721  0.61672291  0.76465849    -0.20700
C1938       C  0.15680081  0.64340417  0.78038503    -0.08700
C1939       C  0.15418401  0.67010959  0.76454784     0.30100
C1940       C  0.15550508  0.67007053  0.73365696    -0.20700
C1941       C  0.15896163  0.64358197  0.71765244    -0.08700
C1942       C  0.16273288  0.61677703  0.73345824     0.30100
F1943       F  0.16875222  0.59097461  0.71888417    -0.19300
H1944       H  0.16463461  0.59600742  0.77655743     0.18500
H1945       H  0.15387018  0.69112244  0.72231260     0.18500
F1946       F  0.15005088  0.69636740  0.77886111    -0.19200
C1947       C  0.17197854  0.73203272  0.86884693    -0.20700
C1948       C  0.15172373  0.71572762  0.85174920    -0.08700
C1949       C  0.12933016  0.73077646  0.83588906     0.30100
C1950       C  0.12789687  0.76187563  0.83650304    -0.20700
C1951       C  0.14798341  0.77812619  0.85390819    -0.08700
C1952       C  0.16972303  0.76300090  0.87050309     0.30100
F1953       F  0.18823367  0.77808877  0.88885576    -0.19300
H1954       H  0.18888852  0.72067033  0.88173300     0.18500
H1955       H  0.11109014  0.77330579  0.82347884     0.18500
F1956       F  0.10897455  0.71541050  0.81984080    -0.19200
C1957       C  0.09414470  0.60986359  0.80250228    -0.20700
C1958       C  0.11887793  0.60246735  0.82018706    -0.08700
C1959       C  0.12164610  0.57351931  0.83155395     0.30100
C1960       C  0.09918225  0.55286378  0.82690855    -0.20700
C1961       C  0.07368472  0.56064160  0.81069544    -0.08700
C1962       C  0.07153169  0.58905466  0.79783782     0.30100
F1963       F  0.04640132  0.59753319  0.78335532    -0.19300
H1964       H  0.09143402  0.63226866  0.79404683     0.18500
H1965       H  0.10116934  0.53103597  0.83694784     0.18500
F1966       F  0.14557234  0.56559380  0.84823515    -0.19200
C1967       C  0.17801588  0.61347180  0.92309032    -0.20700
C1968       C  0.18772863  0.60826454  0.89392187    -0.08700
C1969       C  0.20382785  0.58211223  0.88746301     0.30100
C1970       C  0.20948577  0.56121653  0.90997019    -0.20700
C1971       C  0.19830147  0.56583130  0.93877292    -0.08700
C1972       C  0.18309573  0.59242864  0.94533122     0.30100
F1973       F  0.17205506  0.59746306  0.97303519    -0.19300
H1974       H  0.16523128  0.63330991  0.92830633     0.18500
H1975       H  0.22058241  0.54049504  0.90440306     0.18500
F1976       F  0.21157040  0.57541602  0.85905525    -0.19200
C1977       C  0.11909773  0.69626007  0.91187277    -0.20700
C1978       C  0.11291226  0.67522365  0.88951385    -0.08700
C1979       C  0.08470152  0.66217342  0.88855340     0.30100
C1980       C  0.06369418  0.66887604  0.91039078    -0.20700
C1981       C  0.07015067  0.68909773  0.93330949    -0.08700
C1982       C  0.09771998  0.70352438  0.93341892     0.30100
F1983       F  0.10478001  0.72287524  0.95551118    -0.19300
H1984       H  0.14091614  0.70597850  0.91361763     0.18500
H1985       H  0.04244837  0.65772295  0.90977338     0.18500
F1986       F  0.07759014  0.64247446  0.86678681    -0.19200
C1987       C  0.33745474  0.65639090  0.77356525    -0.20700
C1988       C  0.36345865  0.66013583  0.79032116    -0.08700
C1989       C  0.39052744  0.66481065  0.77549310     0.30100
C1990       C  0.39149469  0.66479748  0.74431384    -0.20700
C1991       C  0.36548827  0.66043132  0.72760782    -0.08700
C1992       C  0.33839041  0.65648326  0.74250417     0.30100
F1993       F  0.31292703  0.65176361  0.72704535    -0.19300
H1994       H  0.31639991  0.65282045  0.78459273     0.18500
H1995       H  0.41245950  0.66854185  0.73317895     0.18500
F1996       F  0.41578727  0.67014127  0.79108211    -0.19200
C1997       C  0.23917308  0.66891010  0.87336772    -0.20700
C1998       C  0.22624872  0.64791390  0.85439382    -0.08700
C1999       C  0.24439360  0.63019365  0.83604200     0.30100
C2000       C  0.27530241  0.63250805  0.83786129    -0.20700
C2001       C  0.28818105  0.65334035  0.85708303    -0.08700
C2002       C  0.26998291  0.67206664  0.87428922     0.30100
F2003       F  0.28210308  0.69302553  0.89228793    -0.19300
H2004       H  0.22537422  0.68297019  0.88727723     0.18500
H2005       H  0.28920042  0.61838605  0.82404974     0.18500
F2006       F  0.23221441  0.61100280  0.81619598    -0.19200
C2007       C  0.30622718  0.62033681  0.91883742    -0.20700
C2008       C  0.32802851  0.61499771  0.89703368    -0.08700
C2009       C  0.34273576  0.58740097  0.89638695     0.30100
C2010       C  0.33691560  0.56618925  0.91805258    -0.20700
C2011       C  0.31605653  0.57186455  0.94053219    -0.08700
C2012       C  0.29992595  0.59870986  0.94030877     0.30100
F2013       F  0.27980542  0.60488047  0.96199025    -0.19300
H2014       H  0.29528758  0.64174112  0.92035212     0.18500
H2015       H  0.34925281  0.54541359  0.91764947     0.18500
F2016       F  0.36343158  0.58121167  0.87527257    -0.19200
C2017       C  0.41823084  0.57617769  0.80606912    -0.20700
C2018       C  0.44453232  0.57497249  0.82289677    -0.08700
C2019       C  0.45018906  0.59755795  0.84377161     0.30100
C2020       C  0.42950067  0.62039300  0.84830946    -0.20700
C2021       C  0.40252689  0.62094838  0.83259117    -0.08700
C2022       C  0.39707464  0.59863668  0.81122281     0.30100
F2023       F  0.37054942  0.59716847  0.79695189    -0.19300
H2024       H  0.41330749  0.55876097  0.79015292     0.18500
H2025       H  0.43420050  0.63730546  0.86484486     0.18500
F2026       F  0.47565995  0.59740353  0.86000368    -0.19200
C2027       C  0.41466552  0.68258800  0.95375691    -0.20700
C2028       C  0.43832496  0.70148383  0.94688336    -0.08700
C2029       C  0.43773678  0.71745030  0.91999051     0.30100
C2030       C  0.41507557  0.71224662  0.89911528    -0.20700
C2031       C  0.39274392  0.69139385  0.90518381    -0.08700
C2032       C  0.39196407  0.67774151  0.93327835     0.30100
F2033       F  0.37000442  0.65846647  0.94036626    -0.19300
H2034       H  0.41446665  0.67046624  0.97460497     0.18500
H2035       H  0.41612010  0.72289905  0.87751955     0.18500
F2036       F  0.46043287  0.73572733  0.91274893    -0.19200
C2037       C  0.38026063  0.85867475  0.74336728    -0.20700
C2038       C  0.35387703  0.86253625  0.72708174    -0.08700
C2039       C  0.32679184  0.86520472  0.74238426     0.30100
C2040       C  0.32622201  0.86462579  0.77345866    -0.20700
C2041       C  0.35256467  0.86132427  0.78982826    -0.08700
C2042       C  0.37965450  0.85784249  0.77455072     0.30100
F2043       F  0.40533659  0.85288775  0.78965563    -0.19300
H2044       H  0.40123180  0.85576496  0.73190873     0.18500
H2045       H  0.30514793  0.86724717  0.78482975     0.18500
F2046       F  0.30090853  0.86912316  0.72729785    -0.19200
C2047       C  0.25892105  0.88632869  0.85268443    -0.20700
C2048       C  0.27664220  0.86095374  0.85742004    -0.08700
C2049       C  0.26298173  0.83306217  0.85992137     0.30100
C2050       C  0.23222266  0.83069221  0.85815878    -0.20700
C2051       C  0.21437181  0.85600990  0.85452464    -0.08700
C2052       C  0.22794383  0.88390609  0.85106791     0.30100
F2053       F  0.21136656  0.90856971  0.84536468    -0.19300
H2054       H  0.26908949  0.90786949  0.84972510     0.18500
H2055       H  0.22231472  0.80899336  0.86016728     0.18500
F2056       F  0.27930024  0.80804699  0.86479970    -0.19200
C2057       C  0.35424350  0.77651654  0.83667092    -0.20700
C2058       C  0.34885147  0.79183267  0.86332194    -0.08700
C2059       C  0.34475372  0.77578199  0.88985575     0.30100
C2060       C  0.34712409  0.74477093  0.88967862    -0.20700
C2061       C  0.35338838  0.72955661  0.86305864    -0.08700
C2062       C  0.35655432  0.74563902  0.83647702     0.30100
F2063       F  0.36276317  0.73156743  0.81042490    -0.19300
H2064       H  0.35743299  0.78858715  0.81605406     0.18500
H2065       H  0.34375298  0.73260033  0.91019696     0.18500
F2066       F  0.33793804  0.79000074  0.91568113    -0.19200
C2067       C  0.32075267  0.95540710  0.91449348    -0.20700
C2068       C  0.30423138  0.94856469  0.93997070    -0.08700
C2069       C  0.29054280  0.92066097  0.94215056     0.30100
C2070       C  0.29548647  0.89906078  0.91999445    -0.20700
C2071       C  0.31382884  0.90542004  0.89551959    -0.08700
C2072       C  0.32531733  0.93417397  0.89233343     0.30100
F2073       F  0.34239458  0.94121692  0.86848511    -0.19300
H2074       H  0.33125782  0.97691635  0.91239858     0.18500
H2075       H  0.28668825  0.87690499  0.92290944     0.18500
F2076       F  0.27473645  0.91349387  0.96680605    -0.19200
C2077       C  0.38624730  0.84747212  0.93147252    -0.20700
C2078       C  0.38618786  0.83318827  0.90368005    -0.08700
C2079       C  0.40912681  0.81274042  0.89694492     0.30100
C2080       C  0.43153003  0.80682559  0.91785757    -0.20700
C2081       C  0.43188421  0.82188483  0.94520219    -0.08700
C2082       C  0.40900661  0.84215867  0.95193323     0.30100
F2083       F  0.40896569  0.85719103  0.97819312    -0.19300
H2084       H  0.36899460  0.86345067  0.93702581     0.18500
H2085       H  0.44956527  0.79191612  0.91200531     0.18500
F2086       F  0.41124092  0.80022741  0.86950498    -0.19200
C2087       C  0.38674397  0.92163276  0.81041332    -0.20700
C2088       C  0.39134657  0.89955886  0.83211172    -0.08700
C2089       C  0.41870695  0.89807200  0.84712145     0.30100
C2090       C  0.44040798  0.91919150  0.84172867    -0.20700
C2091       C  0.43557136  0.94185570  0.82087482    -0.08700
C2092       C  0.40891162  0.94257742  0.80457390     0.30100
F2093       F  0.40361762  0.96451900  0.78451964    -0.19300
H2094       H  0.36568946  0.92327101  0.79882025     0.18500
H2095       H  0.46106572  0.91799211  0.85411051     0.18500
F2096       F  0.42445433  0.87627816  0.86724638    -0.19200
C2097       C  0.82795971  0.34247436  0.33859134     0.46100
H2098       H  0.81482679  0.32787212  0.32363305    -0.02900
C2099       C  0.85866530  0.37650481  0.37335692     0.46100
H2100       H  0.87171276  0.39121721  0.38828359    -0.02900
C2101       C  0.85021220  0.36226957  0.32183613    -0.16600
C2102       C  0.80873144  0.36388630  0.35724656    -0.16400
C2103       C  0.84671279  0.32520624  0.36148037    -0.16800
C2104       C  0.86669377  0.38002426  0.34040772    -0.16700
C2105       C  0.82507287  0.38233936  0.37515009    -0.16300
C2106       C  0.86311490  0.34324592  0.37980773    -0.16600
C2107       C  0.87056569  0.14677140  0.37560858     0.46100
H2108       H  0.88464230  0.13328897  0.39090270    -0.02900
C2109       C  0.83755491  0.17815206  0.34000350     0.46100
H2110       H  0.82308158  0.19141647  0.32489409    -0.02900
C2111       C  0.83745820  0.13948035  0.37788412    -0.16600
C2112       C  0.87255754  0.18040180  0.38127336    -0.16400
C2113       C  0.87835738  0.14228939  0.34262476    -0.16800
C2114       C  0.82005389  0.15631635  0.35932462    -0.16700
C2115       C  0.85529972  0.19706673  0.36222260    -0.16300
C2116       C  0.86098257  0.15904985  0.32375230    -0.16600
C2117       C  0.67483945  0.16797751  0.33146518     0.46100
H2118       H  0.68890298  0.18268140  0.31758228    -0.02900
C2119       C  0.64268980  0.13361437  0.36463280     0.46100
H2120       H  0.62910375  0.11888704  0.37898223    -0.02900
C2121       C  0.65559615  0.14603793  0.31354723    -0.16600
C2122       C  0.69304790  0.14828723  0.35265060    -0.16400
C2123       C  0.65292348  0.18496019  0.35161230    -0.16800
C2124       C  0.63879098  0.12776622  0.33118149    -0.16700
C2125       C  0.67612203  0.13037064  0.37032471    -0.16300
C2126       C  0.63568628  0.16683981  0.36889234    -0.16600
C2127       C  0.62879666  0.36267016  0.36609555     0.46100
H2128       H  0.61292451  0.37565650  0.37999930    -0.02900
C2129       C  0.66559827  0.33173320  0.33387786     0.46100
H2130       H  0.68118667  0.31827357  0.32010656    -0.02900
C2131       C  0.66145367  0.37083967  0.37149292    -0.16600
C2132       C  0.62697243  0.32915512  0.37150340    -0.16400
C2133       C  0.62397267  0.36648342  0.33245598    -0.16800
C2134       C  0.68093576  0.35453287  0.35427606    -0.16700
C2135       C  0.64618254  0.31279716  0.35447529    -0.16300
C2136       C  0.64351410  0.35026840  0.31538561    -0.16600
C2137       C  0.67049859  0.32861421  0.16993394     0.46100
H2138       H  0.68466910  0.31472046  0.18476762    -0.02900
C2139       C  0.63717341  0.36109532  0.13563420     0.46100
H2140       H  0.62300924  0.37507460  0.12088300    -0.02900
C2141       C  0.64728768  0.34741265  0.18694361    -0.16600
C2142       C  0.68803774  0.35118248  0.15115577    -0.16400
C2143       C  0.65257227  0.31045033  0.14712160    -0.16800
C2144       C  0.62959630  0.36452998  0.16876006    -0.16700
C2145       C  0.67022901  0.36841696  0.13314243    -0.16300
C2146       C  0.63513439  0.32771442  0.12891193    -0.16600
C2147       C  0.86636567  0.37461556  0.14246235     0.46100
H2148       H  0.88005267  0.38980021  0.12871834    -0.02900
C2149       C  0.83483575  0.33926752  0.17483541     0.46100
H2150       H  0.82136082  0.32403406  0.18873675    -0.02900
C2151       C  0.83279986  0.37917518  0.13818463    -0.16600
C2152       C  0.87221428  0.34167757  0.13573000    -0.16400
C2153       C  0.87210135  0.37820509  0.17596994    -0.16800
C2154       C  0.81601663  0.36014128  0.15506299    -0.16700
C2155       C  0.85602640  0.32283625  0.15335794    -0.16300
C2156       C  0.85488049  0.35998833  0.19321802    -0.16600
C2157       C  0.65266363  0.13000013  0.13310658     0.46100
H2158       H  0.64059648  0.11490070  0.11787521    -0.02900
C2159       C  0.68073186  0.16613926  0.16811561     0.46100
H2160       H  0.69296694  0.18160443  0.18296739    -0.02900
C2161       C  0.68660849  0.12680264  0.13136017    -0.16600
C2162       C  0.64589109  0.16297469  0.12664946    -0.16400
C2163       C  0.64497945  0.12542119  0.16621938    -0.16800
C2164       C  0.70147069  0.14605646  0.14967322    -0.16700
C2165       C  0.66063595  0.18208243  0.14529855    -0.16300
C2166       C  0.66039457  0.14431221  0.18481642    -0.16600
C2167       C  0.84556790  0.17685692  0.17648062     0.46100
H2168       H  0.83049693  0.19109534  0.19004373    -0.02900
C2169       C  0.88054737  0.14360549  0.14472593     0.46100
H2170       H  0.89556157  0.12935511  0.13111455    -0.02900
C2171       C  0.86669938  0.15736925  0.19524778    -0.16600
C2172       C  0.82904350  0.15495615  0.15609992    -0.16400
C2173       C  0.86573761  0.19462352  0.15542312    -0.16800
C2174       C  0.88538751  0.13996236  0.17839707    -0.16700
C2175       C  0.84756658  0.13733474  0.13924889    -0.16300
C2176       C  0.88406836  0.17691976  0.13845020    -0.16600
O2177       O  0.53896128  0.03260045  0.17030635    -0.72300
O2178       O  0.97210099  0.47433749  0.17474195    -0.73300
O2179       O  0.97817017  0.03663024  0.17485463    -0.61900
O2180       O  0.53403018  0.46867665  0.16898357    -0.70300
O2181       O  0.53875220  0.47012967  0.21819645    -0.69900
O2182       O  0.97897959  0.03545977  0.22432904    -0.61100
O2183       O  0.97437202  0.47231136  0.22414592    -0.73600
O2184       O  0.54109629  0.03568624  0.21963854    -0.72400
Cu2185     Cu  0.50500297  0.00480899  0.17090021     1.04600
Cu2186     Cu  0.50786302  0.00545414  0.22371467     1.04300
C2187       C  0.55075141  0.04309058  0.19388941     0.93900
C2188       C  0.96333990  0.46346152  0.19938778     0.93000
C2189       C  0.96994487  0.04715749  0.19998277     0.85200
C2190       C  0.54518431  0.45832470  0.19300162     0.91400
O2191       O  0.97507012  0.03714176  0.34273630    -0.72300
O2192       O  0.53101106  0.46825075  0.33642990    -0.73300
O2193       O  0.53873141  0.03262997  0.33706407    -0.61900
O2194       O  0.96946688  0.47650583  0.34279824    -0.70300
O2195       O  0.96634273  0.47564384  0.29340817    -0.69900
O2196       O  0.53380214  0.03508088  0.28788113    -0.61100
O2197       O  0.52941630  0.47000451  0.28696964    -0.73600
O2198       O  0.96893442  0.03775215  0.29364654    -0.72400
Cu2199     Cu  0.50384747  0.00596875  0.34138641     1.04600
Cu2200     Cu  0.49963410  0.00590505  0.28865443     1.04300
C2201       C  0.96319094  0.04841039  0.31945062     0.93900
C2202       C  0.53871833  0.45797673  0.31108818     0.93000
C2203       C  0.54717957  0.04258445  0.31188069     0.85200
C2204       C  0.95764670  0.46660439  0.31893271     0.91400
O2205       O  0.71283360  0.46744227  0.46787969    -0.72300
O2206       O  0.72800441  0.02666686  0.03103972    -0.73300
O2207       O  0.71854677  0.46330637  0.03286986    -0.61900
O2208       O  0.72094673  0.02955716  0.46776617    -0.70300
O2209       O  0.67255329  0.03774174  0.47312922    -0.69900
O2210       O  0.66987150  0.47098975  0.03545535    -0.61100
O2211       O  0.67922422  0.03362042  0.03449491    -0.73600
O2212       O  0.66436688  0.47649390  0.46986649    -0.72400
Cu2213     Cu  0.72281461  0.99514790  0.99929163     1.04600
Cu2214     Cu  0.67084341  0.00376368  0.00268248     1.04300
C2215       C  0.68644656  0.46228685  0.45879835     0.93900
C2216       C  0.70560547  0.03971394  0.04279094     0.93000
C2217       C  0.69328979  0.45760945  0.04449887     0.85200
C2218       C  0.69731373  0.04403630  0.46101095     0.91400
O2219       O  0.53516555  0.17026807  0.46748173    -0.72300
O2220       O  0.97934128  0.17121228  0.03644189    -0.73300
O2221       O  0.97292206  0.17442217  0.47525182    -0.61900
O2222       O  0.54176754  0.16471679  0.02961425    -0.70300
O2223       O  0.54448656  0.21386522  0.03341337    -0.69900
O2224       O  0.97790842  0.22350085  0.47419873    -0.61100
O2225       O  0.98067992  0.22056981  0.03714154    -0.73600
O2226       O  0.54140941  0.21915159  0.46927529    -0.72400
Cu2227     Cu  0.50718017  0.16689528  0.00176208     1.04600
Cu2228     Cu  0.51156607  0.21942504  0.00329103     1.04300
C2229       C  0.54740246  0.19378660  0.45768931     0.93900
C2230       C  0.97012298  0.19605319  0.04674271     0.93000
C2231       C  0.96436035  0.19991159  0.46609482     0.85200
C2232       C  0.55381668  0.18791349  0.04054367     0.91400
O2233       O  0.78752989  0.04386954  0.47686892    -0.72300
O2234       O  0.78533908  0.47923056  0.04004767    -0.73300
O2235       O  0.79356739  0.04415368  0.03963978    -0.61900
O2236       O  0.78250388  0.48206060  0.47554572    -0.70300
O2237       O  0.83167414  0.47866575  0.47295064    -0.69900
O2238       O  0.84239819  0.03790744  0.03640735    -0.61100
O2239       O  0.83441851  0.47475642  0.03739165    -0.73600
O2240       O  0.83648608  0.03796812  0.47468242    -0.72400
Cu2241     Cu  0.78631180  0.01261618  0.00792830     1.04600
Cu2242     Cu  0.83868074  0.00687457  0.00484391     1.04300
C2243       C  0.81265306  0.05045629  0.46549986     0.93900
C2244       C  0.80971383  0.46762534  0.04918283     0.93000
C2245       C  0.81988074  0.05054711  0.04828275     0.85200
C2246       C  0.80599209  0.47104024  0.46377872     0.91400
O2247       O  0.52796170  0.28626480  0.47092468    -0.72300
O2248       O  0.96971712  0.29379725  0.03750043    -0.73300
O2249       O  0.96369962  0.29047667  0.47348701    -0.61900
O2250       O  0.53228881  0.28603676  0.03367892    -0.70300
O2251       O  0.53696126  0.33507550  0.03078721    -0.69900
O2252       O  0.96862135  0.33959073  0.47332110    -0.61100
O2253       O  0.97329641  0.34302690  0.03610809    -0.73600
O2254       O  0.53148880  0.33550371  0.46944484    -0.72400
Cu2255     Cu  0.49854982  0.28682850  0.00385667     1.04600
Cu2256     Cu  0.50361133  0.33936594  0.00202731     1.04300
C2257       C  0.53949317  0.30982255  0.46021985     0.93900
C2258       C  0.96181724  0.31950984  0.04687660     0.93000
C2259       C  0.95539199  0.31623184  0.46448185     0.85200
C2260       C  0.54562809  0.30999231  0.04095412     0.91400
C2261       C  0.85249961  0.08700050  0.11667812    -0.20700
C2262       C  0.83809904  0.11473839  0.11693555    -0.08700
C2263       C  0.81691173  0.12110177  0.09460360     0.30100
C2264       C  0.80986915  0.09964496  0.07302794    -0.20700
C2265       C  0.82487316  0.07218839  0.07254157    -0.08700
C2266       C  0.84630304  0.06609547  0.09456135     0.30100
F2267       F  0.86132078  0.03983022  0.09470241    -0.19300
H2268       H  0.86899714  0.08164213  0.13347180     0.18500
H2269       H  0.79378386  0.10500612  0.05584592     0.18500
F2270       F  0.80436785  0.14852804  0.09247742    -0.19200
C2271       C  0.90165185  0.17147060  0.08682707    -0.20700
C2272       C  0.90377069  0.18667862  0.11399346    -0.08700
C2273       C  0.92636323  0.20783509  0.11792969     0.30100
C2274       C  0.94732125  0.21241680  0.09523182    -0.20700
C2275       C  0.94611475  0.19551330  0.06891114    -0.08700
C2276       C  0.92265184  0.17557627  0.06463218     0.30100
F2277       F  0.92045874  0.15940289  0.03915037    -0.19300
H2278       H  0.88417970  0.15541670  0.08317260     0.18500
H2279       H  0.96542544  0.22771457  0.09889971     0.18500
F2280       F  0.92938561  0.22246209  0.14420620    -0.19200
C2281       C  0.93679900  0.12028895  0.17686576    -0.20700
C2282       C  0.90846906  0.11907624  0.18969961    -0.08700
C2283       C  0.90185266  0.09574991  0.20952159     0.30100
C2284       C  0.92293485  0.07322586  0.21493436    -0.20700
C2285       C  0.95033985  0.07345245  0.20006262    -0.08700
C2286       C  0.95749298  0.09766299  0.18181252     0.30100
F2287       F  0.98417554  0.09878511  0.16779992    -0.19300
H2288       H  0.94241248  0.13816381  0.16175946     0.18500
H2289       H  0.91706668  0.05457705  0.22895008     0.18500
F2290       F  0.87438047  0.09332517  0.22161135    -0.19200
C2291       C  0.74792389  0.17566137  0.14746343    -0.20700
C2292       C  0.73419139  0.14813283  0.15200818    -0.08700
C2293       C  0.75169385  0.12336792  0.15993746     0.30100
C2294       C  0.78254395  0.12574466  0.16140244    -0.20700
C2295       C  0.79631461  0.15299760  0.15577825    -0.08700
C2296       C  0.77879778  0.17817985  0.14949246     0.30100
F2297       F  0.79161819  0.20487733  0.14418818    -0.19300
H2298       H  0.73471068  0.19511811  0.14193090     0.18500
H2299       H  0.79574924  0.10636707  0.16721605     0.18500
F2300       F  0.73902230  0.09724740  0.16750774    -0.19200
C2301       C  0.60166052  0.19318905  0.10964347    -0.20700
C2302       C  0.62394855  0.17198088  0.10340251    -0.08700
C2303       C  0.62371699  0.15755216  0.07554870     0.30100
C2304       C  0.60111304  0.16338204  0.05502565    -0.20700
C2305       C  0.57874576  0.18421582  0.06147029    -0.08700
C2306       C  0.57947772  0.19961391  0.08868027     0.30100
F2307       F  0.55765657  0.21931899  0.09579256    -0.19300
H2308       H  0.60062205  0.20395333  0.13118784     0.18500
H2309       H  0.60097714  0.15146296  0.03402367     0.18500
F2310       F  0.64521909  0.13763949  0.06809489    -0.19200
C2311       C  0.70508494  0.05321029  0.09612395    -0.20700
C2312       C  0.70952320  0.06179581  0.06649837    -0.08700
C2313       C  0.71198609  0.09209458  0.05951849     0.30100
C2314       C  0.70747661  0.11362410  0.08168008    -0.20700
C2315       C  0.70047703  0.10501484  0.11084688    -0.08700
C2316       C  0.70081923  0.07466928  0.11825845     0.30100
F2317       F  0.69515050  0.06571276  0.14653470    -0.19300
H2318       H  0.70307002  0.02988790  0.10176677     0.20500
H2319       H  0.70717880  0.13693441  0.07563206     0.18500
F2320       F  0.71622135  0.10080180  0.03090143    -0.19200
C2321       C  0.60086900  0.11055094  0.19784427    -0.20700
C2322       C  0.62201850  0.10341119  0.17573543    -0.08700
C2323       C  0.61988390  0.07562603  0.16135845     0.30100
C2324       C  0.59737292  0.05592741  0.16863394    -0.20700
C2325       C  0.57623777  0.06314190  0.19030907    -0.08700
C2326       C  0.57829746  0.09047336  0.20529525     0.30100
F2327       F  0.55738621  0.09861118  0.22546896    -0.19300
H2328       H  0.60110564  0.13208942  0.20861888     0.18500
H2329       H  0.59607587  0.03499676  0.15671320     0.18500
F2330       F  0.63907916  0.06727221  0.13973353    -0.19200
C2331       C  0.85581625  0.27361379  0.12682429    -0.20700
C2332       C  0.85878891  0.28996196  0.15332961    -0.08700
C2333       C  0.86402736  0.27478226  0.18020508     0.30100
C2334       C  0.86651049  0.24382886  0.18045319    -0.20700
C2335       C  0.86393503  0.22748269  0.15397818    -0.08700
C2336       C  0.85824260  0.24255144  0.12710195     0.30100
F2337       F  0.85391057  0.22724156  0.10140984    -0.19300
H2338       H  0.85115285  0.28490432  0.10601949     0.18500
H2339       H  0.87068076  0.23253928  0.20138407     0.18500
F2340       F  0.86736242  0.28991377  0.20617298    -0.19200
C2341       C  0.91502999  0.34276229  0.06357616    -0.20700
C2342       C  0.93822393  0.32267872  0.06925869    -0.08700
C2343       C  0.93883083  0.30703294  0.09634112     0.30100
C2344       C  0.91688148  0.31243513  0.11789435    -0.20700
C2345       C  0.89380811  0.33293962  0.11225596    -0.08700
C2346       C  0.89283309  0.34759598  0.08460658     0.30100
F2347       F  0.87043064  0.36681323  0.07788985    -0.19300
H2348       H  0.91409199  0.35475566  0.04266060     0.18500
H2349       H  0.91845860  0.30138068  0.13926179     0.18500
F2350       F  0.96146114  0.28794094  0.10256426    -0.19200
C2351       C  0.83498813  0.43086808  0.11976765    -0.20700
C2352       C  0.82172306  0.40282913  0.11778081    -0.08700
C2353       C  0.80121590  0.39739531  0.09463508     0.30100
C2354       C  0.79532040  0.41947445  0.07322603    -0.20700
C2355       C  0.81038990  0.44668265  0.07433996    -0.08700
C2356       C  0.82966802  0.45244108  0.09818989     0.30100
F2357       F  0.84426345  0.47868084  0.09999589    -0.19300
H2358       H  0.85056816  0.43568589  0.13752929     0.18500
H2359       H  0.78062994  0.41460959  0.05474521     0.18500
F2360       F  0.78864975  0.37026140  0.09137100    -0.19200
C2361       C  0.92388748  0.39542445  0.17246477    -0.20700
C2362       C  0.89621592  0.39796017  0.18653391    -0.08700
C2363       C  0.89168418  0.42073129  0.20768554     0.30100
C2364       C  0.91437306  0.44123018  0.21359815    -0.20700
C2365       C  0.94136567  0.43945250  0.19808074    -0.08700
C2366       C  0.94614684  0.41599867  0.17794453     0.30100
F2367       F  0.97214356  0.41356103  0.16278076    -0.19300
H2368       H  0.92795079  0.37793952  0.15630314     0.18500
H2369       H  0.91020509  0.45954968  0.22870061     0.18500
F2370       F  0.86490602  0.42438577  0.22105491    -0.19200
C2371       C  0.66467215  0.26282664  0.12020261    -0.20700
C2372       C  0.65433151  0.27760534  0.14582291    -0.08700
C2373       C  0.64530247  0.26092076  0.17048616     0.30100
C2374       C  0.64633026  0.22993998  0.16945888    -0.20700
C2375       C  0.65787195  0.21501803  0.14457211    -0.08700
C2376       C  0.66671904  0.23165903  0.11964383     0.30100
F2377       F  0.67751170  0.21781809  0.09500546    -0.19300
H2378       H  0.67160399  0.27545840  0.10093622     0.18500
H2379       H  0.63714645  0.21771140  0.18762696     0.18500
F2380       F  0.63444901  0.27459084  0.19520992    -0.19200
C2381       C  0.76970066  0.33063596  0.15148516    -0.20700
C2382       C  0.78314386  0.35849457  0.15482872    -0.08700
C2383       C  0.76512428  0.38392533  0.15832727     0.30100
C2384       C  0.73419040  0.38147455  0.15731090    -0.20700
C2385       C  0.72079811  0.35367370  0.15307544    -0.08700
C2386       C  0.73881670  0.32816324  0.15064016     0.30100
F2387       F  0.72662801  0.30096138  0.14640196    -0.19300
H2388       H  0.78321100  0.31076601  0.14890619     0.18500
H2389       H  0.72064462  0.40127509  0.16008141     0.18500
F2390       F  0.77732493  0.41096551  0.16338460    -0.19200
C2391       C  0.61747049  0.33203063  0.07707056    -0.20700
C2392       C  0.61587585  0.31712864  0.10440924    -0.08700
C2393       C  0.59296895  0.29652083  0.10915205     0.30100
C2394       C  0.57101757  0.29248085  0.08735992    -0.20700
C2395       C  0.57140336  0.30940517  0.06112151    -0.08700
C2396       C  0.59535265  0.32849845  0.05571706     0.30100
F2397       F  0.59669598  0.34477549  0.03029803    -0.19300
H2398       H  0.63505243  0.34783961  0.07294690     0.18500
H2399       H  0.55252465  0.27794399  0.09195661     0.18500
F2400       F  0.59015506  0.28245981  0.13570096    -0.19200
C2401       C  0.66551524  0.41976844  0.11390549    -0.20700
C2402       C  0.68010177  0.39217759  0.11260320    -0.08700
C2403       C  0.70090364  0.38683413  0.08979011     0.30100
C2404       C  0.70639596  0.40877046  0.06830260    -0.20700
C2405       C  0.69060508  0.43582557  0.06890666    -0.08700
C2406       C  0.67053169  0.44134181  0.09227251     0.30100
F2407       F  0.65547510  0.46755418  0.09403072    -0.19300
H2408       H  0.64946656  0.42429640  0.13133950     0.18500
H2409       H  0.72176494  0.40403984  0.05033923     0.18500
F2410       F  0.71439032  0.35988781  0.08713320    -0.19200
C2411       C  0.61267709  0.40780821  0.20056465    -0.20700
C2412       C  0.60648797  0.38619403  0.17873493    -0.08700
C2413       C  0.57889579  0.38707150  0.16411046     0.30100
C2414       C  0.55871361  0.41002617  0.16990360    -0.20700
C2415       C  0.56529113  0.43230282  0.19077794    -0.08700
C2416       C  0.59208114  0.43055027  0.20682522     0.30100
F2417       F  0.59928850  0.45196413  0.22682753    -0.19300
H2418       H  0.63397470  0.40791202  0.21178760     0.18500
H2419       H  0.53802517  0.41074621  0.15755679     0.18500
F2420       F  0.57162774  0.36598858  0.14373450    -0.19200
C2421       C  0.67161415  0.35358287  0.23618046    -0.20700
C2422       C  0.64580492  0.34756170  0.21985439    -0.08700
C2423       C  0.61904565  0.34229069  0.23502495     0.30100
C2424       C  0.61821257  0.34352083  0.26615294    -0.20700
C2425       C  0.64402846  0.34989108  0.28244178    -0.08700
C2426       C  0.67077518  0.35486789  0.26723129     0.30100
F2427       F  0.69591725  0.36179616  0.28236696    -0.19300
H2428       H  0.69233823  0.35790164  0.22478590     0.18500
H2429       H  0.59754921  0.33906287  0.27758610     0.18500
F2430       F  0.59393885  0.33544501  0.21979512    -0.19200
C2431       C  0.61357401  0.32110201  0.42417949    -0.20700
C2432       C  0.60659054  0.31708290  0.39405156    -0.08700
C2433       C  0.57826871  0.30687585  0.38598991     0.30100
C2434       C  0.55670113  0.30219129  0.40796184    -0.20700
C2435       C  0.56326179  0.30798869  0.43795926    -0.08700
C2436       C  0.59207817  0.31658057  0.44603841     0.30100
F2437       F  0.59889595  0.32215550  0.47496741    -0.19300
H2438       H  0.63520991  0.32937943  0.43059794     0.18500
H2439       H  0.53442640  0.29595835  0.40142846     0.18500
F2440       F  0.57081459  0.30373401  0.35685797    -0.19200
C2441       C  0.58690971  0.43393465  0.29796027    -0.20700
C2442       C  0.55849656  0.43193128  0.31050132    -0.08700
C2443       C  0.55081569  0.40655290  0.32687035     0.30100
C2444       C  0.57185404  0.38427479  0.33206684    -0.20700
C2445       C  0.60083305  0.38702363  0.32113894    -0.08700
C2446       C  0.60813447  0.41165979  0.30337850     0.30100
F2447       F  0.63635130  0.41551458  0.29361007    -0.19300
H2448       H  0.59330181  0.45374995  0.28595916     0.18500
H2449       H  0.56594143  0.36548786  0.34587957     0.18500
F2450       F  0.52334378  0.40404022  0.33901961    -0.19200
C2451       C  0.65328065  0.42133900  0.39301543    -0.20700
C2452       C  0.66957171  0.39459239  0.39313487    -0.08700
C2453       C  0.69197560  0.39054683  0.41473095     0.30100
C2454       C  0.69809439  0.41311109  0.43535469    -0.20700
C2455       C  0.68129003  0.43954386  0.43556836    -0.08700
C2456       C  0.65885391  0.44351338  0.41409995     0.30100
F2457       F  0.64254542  0.46900342  0.41324330    -0.19300
H2458       H  0.63603340  0.42505080  0.37654689     0.18500
H2459       H  0.71516363  0.40941919  0.45199376     0.18500
F2460       F  0.70696709  0.36437064  0.41692583    -0.19200
C2461       C  0.66035877  0.11785333  0.26541052    -0.20700
C2462       C  0.65646180  0.14494673  0.28060971    -0.08700
C2463       C  0.65518292  0.17144232  0.26426205     0.30100
C2464       C  0.65704857  0.17081646  0.23337072    -0.20700
C2465       C  0.65944156  0.14385331  0.21790148    -0.08700
C2466       C  0.66204511  0.11726758  0.23425355     0.30100
F2467       F  0.66731748  0.09098386  0.22027794    -0.19300
H2468       H  0.66279209  0.09727331  0.27767227     0.18500
H2469       H  0.65672203  0.19149048  0.22182278     0.18500
F2470       F  0.65184349  0.19812161  0.27800002    -0.19200
C2471       C  0.67083547  0.23388318  0.36990046    -0.20700
C2472       C  0.65114195  0.21774216  0.35198621    -0.08700
C2473       C  0.62958855  0.23291920  0.33513787     0.30100
C2474       C  0.62814283  0.26399118  0.33595870    -0.20700
C2475       C  0.64750357  0.28005070  0.35432592    -0.08700
C2476       C  0.66863535  0.26484184  0.37160040     0.30100
F2477       F  0.68669228  0.27985875  0.39048023    -0.19300
H2478       H  0.68725459  0.22238581  0.38331748     0.18500
H2479       H  0.61187753  0.27556471  0.32236929     0.18500
F2480       F  0.61006288  0.21770889  0.31794139    -0.19200
C2481       C  0.59303968  0.11219094  0.30337657    -0.20700
C2482       C  0.61803983  0.10460672  0.32061049    -0.08700
C2483       C  0.62095851  0.07554501  0.33162705     0.30100
C2484       C  0.59842943  0.05492046  0.32704457    -0.20700
C2485       C  0.57268403  0.06285535  0.31128319    -0.08700
C2486       C  0.57033959  0.09143378  0.29881438     0.30100
F2487       F  0.54499396  0.10009085  0.28481561    -0.19300
H2488       H  0.59021893  0.13469222  0.29520922     0.18500
H2489       H  0.60054693  0.03299393  0.33683591     0.18500
F2490       F  0.64511487  0.06747830  0.34791141    -0.19200
C2491       C  0.67768754  0.11609641  0.42339508    -0.20700
C2492       C  0.68744339  0.11078866  0.39426092    -0.08700
C2493       C  0.70380060  0.08476303  0.38796343     0.30100
C2494       C  0.70929658  0.06387105  0.41050988    -0.20700
C2495       C  0.69778864  0.06841988  0.43919700    -0.08700
C2496       C  0.68269856  0.09510497  0.44569868     0.30100
F2497       F  0.67170214  0.10028372  0.47339419    -0.19300
H2498       H  0.66487688  0.13594315  0.42852102     0.18500
H2499       H  0.72050926  0.04318973  0.40503411     0.18500
F2500       F  0.71197371  0.07817739  0.35965045    -0.19200
C2501       C  0.61752186  0.19862366  0.41160386    -0.20700
C2502       C  0.61195823  0.17707123  0.38957277    -0.08700
C2503       C  0.58406890  0.16329842  0.38878216     0.30100
C2504       C  0.56279769  0.16990067  0.41038576    -0.20700
C2505       C  0.56860691  0.19078198  0.43286360    -0.08700
C2506       C  0.59583025  0.20584309  0.43283895     0.30100
F2507       F  0.60227812  0.22583505  0.45454722    -0.19300
H2508       H  0.63910092  0.20880671  0.41340778     0.18500
H2509       H  0.54184024  0.15821237  0.40989908     0.18500
F2510       F  0.57750770  0.14299046  0.36741199    -0.19200
C2511       C  0.83734789  0.15490801  0.27399449    -0.20700
C2512       C  0.86321009  0.15895865  0.29085387    -0.08700
C2513       C  0.89047474  0.16300562  0.27616741     0.30100
C2514       C  0.89170287  0.16232062  0.24501074    -0.20700
C2515       C  0.86578988  0.15778123  0.22821546    -0.08700
C2516       C  0.83856784  0.15419360  0.24297364     0.30100
F2517       F  0.81323350  0.14910016  0.22742688    -0.19300
H2518       H  0.81618612  0.15170184  0.28491980     0.18500
H2519       H  0.91277574  0.16572730  0.23396567     0.18500
F2520       F  0.91567926  0.16834521  0.29185221    -0.19200
C2521       C  0.73876736  0.17051055  0.37370378    -0.20700
C2522       C  0.72560252  0.15008246  0.35428252    -0.08700
C2523       C  0.74349843  0.13245583  0.33561494     0.30100
C2524       C  0.77441864  0.13412079  0.33767259    -0.20700
C2525       C  0.78754562  0.15421936  0.35748370    -0.08700
C2526       C  0.76962398  0.17301698  0.37489746     0.30100
F2527       F  0.78205612  0.19345473  0.39328500    -0.19300
H2528       H  0.72512768  0.18458052  0.38777585     0.18500
H2529       H  0.78813088  0.12002759  0.32365024     0.18500
F2530       F  0.73105231  0.11384762  0.31537682    -0.19200
C2531       C  0.80516881  0.12066052  0.41953721    -0.20700
C2532       C  0.82694080  0.11540533  0.39767133    -0.08700
C2533       C  0.84139340  0.08766784  0.39676310     0.30100
C2534       C  0.83559689  0.06636587  0.41837327    -0.20700
C2535       C  0.81490962  0.07201180  0.44102050    -0.08700
C2536       C  0.79881730  0.09889510  0.44090549     0.30100
F2537       F  0.77864653  0.10493886  0.46257260    -0.19300
H2538       H  0.79426885  0.14207581  0.42116062     0.18500
H2539       H  0.84781402  0.04552319  0.41777861     0.18500
F2540       F  0.86179644  0.08138677  0.37540183    -0.19200
C2541       C  0.91581150  0.07490980  0.30694537    -0.20700
C2542       C  0.94268394  0.07390797  0.32280374    -0.08700
C2543       C  0.94898859  0.09651420  0.34346156     0.30100
C2544       C  0.92845896  0.11935979  0.34859087    -0.20700
C2545       C  0.90111204  0.11991839  0.33357789    -0.08700
C2546       C  0.89487342  0.09739478  0.31266072     0.30100
F2547       F  0.86787595  0.09586905  0.29931221    -0.19300
H2548       H  0.91037848  0.05739563  0.29130657     0.18500
H2549       H  0.93367479  0.13639212  0.36483922     0.18500
F2550       F  0.97501915  0.09644031  0.35877280    -0.19200
C2551       C  0.91369799  0.18346671  0.45390579    -0.20700
C2552       C  0.93810236  0.20118175  0.44657738    -0.08700
C2553       C  0.93831884  0.21632884  0.41920959     0.30100
C2554       C  0.91547043  0.21156079  0.39844027    -0.20700
C2555       C  0.89226050  0.19188731  0.40505318    -0.08700
C2556       C  0.89086017  0.17901725  0.43349061     0.30100
F2557       F  0.86816533  0.16075996  0.44094772    -0.19300
H2558       H  0.91299338  0.17193542  0.47508018     0.18500
H2559       H  0.91700637  0.22149359  0.37652956     0.18500
F2560       F  0.96188583  0.23327687  0.41148382    -0.19200
C2561       C  0.88057642  0.35721882  0.24289741    -0.20700
C2562       C  0.85430679  0.35997193  0.22620401    -0.08700
C2563       C  0.82701436  0.36269954  0.24111381     0.30100
C2564       C  0.82614319  0.36353604  0.27215189    -0.20700
C2565       C  0.85236907  0.36154092  0.28890628    -0.08700
C2566       C  0.87967215  0.35785157  0.27407009     0.30100
F2567       F  0.90527517  0.35397599  0.28960281    -0.19300
H2568       H  0.90172460  0.35425303  0.23178427     0.18500
H2569       H  0.80488665  0.36616183  0.28317343     0.18500
F2570       F  0.80119642  0.36540937  0.22566866    -0.19200
C2571       C  0.75835895  0.38780236  0.35147310    -0.20700
C2572       C  0.77590979  0.36236147  0.35652275    -0.08700
C2573       C  0.76207653  0.33464512  0.35970124     0.30100
C2574       C  0.73129900  0.33248546  0.35828687    -0.20700
C2575       C  0.71362623  0.35786086  0.35422402    -0.08700
C2576       C  0.72734586  0.38559199  0.35014306     0.30100
F2577       F  0.71087295  0.41025622  0.34412968    -0.19300
H2578       H  0.76868523  0.40920440  0.34807824     0.18500
H2579       H  0.72121888  0.31091557  0.36091300     0.18500
F2580       F  0.77826532  0.30962076  0.36492903    -0.19200
C2581       C  0.85190101  0.27670182  0.33548020    -0.20700
C2582       C  0.84728467  0.29228358  0.36214462    -0.08700
C2583       C  0.84413807  0.27636148  0.38891415     0.30100
C2584       C  0.84707700  0.24538247  0.38901606    -0.20700
C2585       C  0.85278886  0.22991044  0.36242354    -0.08700
C2586       C  0.85464663  0.24580103  0.33554194     0.30100
F2587       F  0.86002931  0.23156066  0.30939500    -0.19300
H2588       H  0.85429793  0.28858366  0.31464185     0.18500
H2589       H  0.84447462  0.23342978  0.40977334     0.18500
F2590       F  0.83784674  0.29069036  0.41480573    -0.19200
C2591       C  0.82072700  0.45664744  0.41291811    -0.20700
C2592       C  0.80438843  0.45011706  0.43859807    -0.08700
C2593       C  0.79053653  0.42231008  0.44109572     0.30100
C2594       C  0.79522717  0.40047703  0.41910038    -0.20700
C2595       C  0.81344786  0.40651110  0.39444862    -0.08700
C2596       C  0.82500925  0.43519502  0.39090710     0.30100
F2597       F  0.84188103  0.44196831  0.36683796    -0.19300
H2598       H  0.83131436  0.47808478  0.41053900     0.18500
H2599       H  0.78632751  0.37839826  0.42226811     0.18500
F2600       F  0.77482499  0.41544904  0.46590286    -0.19200
C2601       C  0.88543318  0.34712035  0.43023189    -0.20700
C2602       C  0.88516165  0.33311319  0.40232337    -0.08700
C2603       C  0.90753352  0.31205129  0.39553000     0.30100
C2604       C  0.92946177  0.30508383  0.41661253    -0.20700
C2605       C  0.93004771  0.31984284  0.44411528    -0.08700
C2606       C  0.90783091  0.34087384  0.45080846     0.30100
F2607       F  0.90814649  0.35581419  0.47711448    -0.19300
H2608       H  0.86861938  0.36354669  0.43582879     0.18500
H2609       H  0.94704307  0.28962934  0.41075771     0.18500
F2610       F  0.90953698  0.29982292  0.36794849    -0.19200
C2611       C  0.88632888  0.42281792  0.31008670    -0.20700
C2612       C  0.89082462  0.40046961  0.33154569    -0.08700
C2613       C  0.91794748  0.39921611  0.34703683     0.30100
C2614       C  0.93953489  0.42061709  0.34221946    -0.20700
C2615       C  0.93485841  0.44345920  0.32153509    -0.08700
C2616       C  0.90834182  0.44417939  0.30495441     0.30100
F2617       F  0.90299286  0.46651925  0.28535643    -0.19300
H2618       H  0.86541733  0.42439835  0.29822451     0.18500
H2619       H  0.96002238  0.41944445  0.35488440     0.18500
F2620       F  0.92357004  0.37736618  0.36713388    -0.19200
C2621       C  0.83004179  0.34115276  0.83760875     0.46100
H2622       H  0.81730023  0.32631749  0.82254747    -0.02900
C2623       C  0.86025520  0.37584354  0.87222548     0.46100
H2624       H  0.87315978  0.39083553  0.88701124    -0.02900
C2625       C  0.85134508  0.36175295  0.82074980    -0.16600
C2626       C  0.81038942  0.36188617  0.85667857    -0.16400
C2627       C  0.84972805  0.32430245  0.86011645    -0.16800
C2628       C  0.86764750  0.37975579  0.83914016    -0.16700
C2629       C  0.82651760  0.38057628  0.87459554    -0.16300
C2630       C  0.86568224  0.34271072  0.87849564    -0.16600
C2631       C  0.87181284  0.14547586  0.87290920     0.46100
H2632       H  0.88578519  0.13160677  0.88794966    -0.02900
C2633       C  0.83887900  0.17774633  0.83804937     0.46100
H2634       H  0.82454875  0.19150410  0.82323708    -0.02900
C2635       C  0.83862522  0.13872472  0.87554222    -0.16600
C2636       C  0.87446715  0.17895791  0.87886806    -0.16400
C2637       C  0.87928531  0.14130219  0.83980194    -0.16800
C2638       C  0.82120242  0.15596592  0.85735428    -0.16700
C2639       C  0.85736647  0.19611057  0.86015725    -0.16300
C2640       C  0.86176955  0.15840724  0.82134434    -0.16600
C2641       C  0.67481099  0.16584680  0.83092592     0.46100
H2642       H  0.68801982  0.18087215  0.81653059    -0.02900
C2643       C  0.64407607  0.13081570  0.86474789     0.46100
H2644       H  0.63102439  0.11590468  0.87940283    -0.02900
C2645       C  0.65537641  0.14373223  0.81345213    -0.16600
C2646       C  0.69395266  0.14631346  0.85160489    -0.16400
C2647       C  0.65313428  0.18241399  0.85175176    -0.16800
C2648       C  0.63943077  0.12501377  0.83137171    -0.16700
C2649       C  0.67771521  0.12803359  0.86962729    -0.16300
C2650       C  0.63656768  0.16391940  0.86929151    -0.16600
C2651       C  0.62991631  0.36044063  0.86673684     0.46100
H2652       H  0.61431549  0.37318015  0.88115473    -0.02900
C2653       C  0.66629549  0.32988243  0.83375826     0.46100
H2654       H  0.68159744  0.31661103  0.81950219    -0.02900
C2655       C  0.66268778  0.36835519  0.87198751    -0.16600
C2656       C  0.62788848  0.32688756  0.87153407    -0.16400
C2657       C  0.62466570  0.36500034  0.83325567    -0.16800
C2658       C  0.68205850  0.35233273  0.85430494    -0.16700
C2659       C  0.64697685  0.31062687  0.85432170    -0.16300
C2660       C  0.64405199  0.34892955  0.81577158    -0.16600
C2661       C  0.67094309  0.33331865  0.66963133     0.46100
H2662       H  0.68590928  0.31982689  0.68403168    -0.02900
C2663       C  0.63617209  0.36534442  0.63645298     0.46100
H2664       H  0.62126127  0.37916988  0.62229961    -0.02900
C2665       C  0.64781183  0.35131521  0.68737081    -0.16600
C2666       C  0.68751195  0.35636019  0.65055059    -0.16400
C2667       C  0.65273871  0.31478211  0.64727670    -0.16800
C2668       C  0.62939112  0.36817990  0.66979292    -0.16700
C2669       C  0.66898798  0.37339180  0.63306746    -0.16300
C2670       C  0.63457598  0.33193857  0.62950732    -0.16600
C2671       C  0.86627944  0.37665405  0.64156089     0.46100
H2672       H  0.88031961  0.39150844  0.62782488    -0.02900
C2673       C  0.83372183  0.34219967  0.67387824     0.46100
H2674       H  0.81980963  0.32735807  0.68777550    -0.02900
C2675       C  0.83289359  0.38205642  0.63724408    -0.16600
C2676       C  0.87127740  0.34357610  0.63481530    -0.16400
C2677       C  0.87201412  0.38016422  0.67507320    -0.16800
C2678       C  0.81553707  0.36362259  0.65411840    -0.16700
C2679       C  0.85446880  0.32518446  0.65236076    -0.16300
C2680       C  0.85430532  0.36237524  0.69226761    -0.16600
C2681       C  0.65059269  0.13390157  0.63282580     0.46100
H2682       H  0.63854357  0.11946278  0.61692744    -0.02900
C2683       C  0.67857193  0.16859047  0.66938496     0.46100
H2684       H  0.69078450  0.18316452  0.68514153    -0.02900
C2685       C  0.68450166  0.13031738  0.63140852    -0.16600
C2686       C  0.64433028  0.16716881  0.62736202    -0.16400
C2687       C  0.64247551  0.12830552  0.66562742    -0.16800
C2688       C  0.69931852  0.14875022  0.65062633    -0.16700
C2689       C  0.65936221  0.18567787  0.64653470    -0.16300
C2690       C  0.65748479  0.14663552  0.68494588    -0.16600
C2691       C  0.84384301  0.17899003  0.67484882     0.46100
H2692       H  0.82909164  0.19317855  0.68881017    -0.02900
C2693       C  0.87814327  0.14572641  0.64240695     0.46100
H2694       H  0.89294785  0.13156034  0.62849030    -0.02900
C2695       C  0.86525817  0.15933819  0.69309656    -0.16600
C2696       C  0.82687863  0.15720038  0.65475132    -0.16400
C2697       C  0.86363899  0.19680364  0.65354441    -0.16800
C2698       C  0.88357422  0.14188600  0.67591606    -0.16700
C2699       C  0.84503135  0.13941359  0.63759497    -0.16300
C2700       C  0.88167291  0.17908171  0.63629957    -0.16600
O2701       O  0.53928500  0.03223769  0.66847383    -0.72300
O2702       O  0.97238668  0.47595426  0.67215217    -0.73300
O2703       O  0.97729935  0.03835147  0.67263636    -0.61900
O2704       O  0.53268043  0.47019687  0.67167745    -0.70300
O2705       O  0.53773794  0.47125296  0.72090045    -0.69900
O2706       O  0.97731982  0.03742875  0.72210593    -0.61100
O2707       O  0.97537713  0.47395096  0.72151258    -0.73600
O2708       O  0.54140481  0.03529057  0.71782135    -0.72400
Cu2709     Cu  0.50518573  0.00466161  0.66914023     1.04600
Cu2710     Cu  0.50813087  0.00528129  0.72196657     1.04300
C2711       C  0.55100380  0.04275418  0.69207497     0.93900
C2712       C  0.96385633  0.46520448  0.69694948     0.93000
C2713       C  0.96856839  0.04895900  0.69756131     0.85200
C2714       C  0.54404410  0.45977616  0.69556086     0.91400
O2715       O  0.97762708  0.03834285  0.84160076    -0.72300
O2716       O  0.53045270  0.46756373  0.83940928    -0.73300
O2717       O  0.53841280  0.03019181  0.83754341    -0.61900
O2718       O  0.97027856  0.47592666  0.84010948    -0.70300
O2719       O  0.96666684  0.47540601  0.79073973    -0.69900
O2720       O  0.53378531  0.03320486  0.78835349    -0.61100
O2721       O  0.52956253  0.46939686  0.78996589    -0.73600
O2722       O  0.97203693  0.03779273  0.79245097    -0.72400
Cu2723     Cu  0.50411249  0.00284262  0.84129819     1.04600
Cu2724     Cu  0.49997874  0.00368476  0.78854246     1.04300
C2725       C  0.96613114  0.04915733  0.81790912     0.93900
C2726       C  0.53851700  0.45724806  0.81417333     0.93000
C2727       C  0.54697206  0.04046579  0.81253386     0.85200
C2728       C  0.95816396  0.46626861  0.81629207     0.91400
O2729       O  0.71413455  0.46354164  0.96950792    -0.72300
O2730       O  0.72574263  0.02953240  0.53135491    -0.73300
O2731       O  0.71642726  0.46734220  0.53135888    -0.61900
O2732       O  0.72378223  0.02714017  0.96716506    -0.70300
O2733       O  0.67536230  0.03534074  0.97210679    -0.69900
O2734       O  0.66778853  0.47538463  0.53336692    -0.61100
O2735       O  0.67694647  0.03601037  0.53530199    -0.73600
O2736       O  0.66564478  0.47230957  0.97211951    -0.72400
Cu2737     Cu  0.72047191  0.99770925  0.49985580     1.04600
Cu2738     Cu  0.66849398  0.00601665  0.50357307     1.04300
C2739       C  0.68767776  0.45830415  0.96071614     0.93900
C2740       C  0.70335183  0.04255984  0.54316253     0.93000
C2741       C  0.69099978  0.46184538  0.54273668     0.85200
C2742       C  0.70019760  0.04157633  0.96009485     0.91400
O2743       O  0.53495194  0.16668261  0.96733346    -0.72300
O2744       O  0.97919828  0.17206699  0.53665572    -0.73300
O2745       O  0.97381424  0.17285377  0.97482493    -0.61900
O2746       O  0.54127792  0.16926473  0.52995011    -0.70300
O2747       O  0.54353010  0.21847912  0.53319580    -0.69900
O2748       O  0.97836029  0.22197824  0.97336224    -0.61100
O2749       O  0.98115000  0.22140308  0.53779027    -0.73600
O2750       O  0.54170578  0.21545985  0.96974825    -0.72400
Cu2751     Cu  0.50709751  0.17070616  0.50157198     1.04600
Cu2752     Cu  0.51094235  0.22329722  0.50242107     1.04300
C2753       C  0.54752735  0.19017309  0.95788381     0.93900
C2754       C  0.97029640  0.19693471  0.54714748     0.93000
C2755       C  0.96524880  0.19817154  0.96519038     0.85200
C2756       C  0.55289848  0.19268741  0.54086074     0.91400
O2757       O  0.78952477  0.04414516  0.97591828    -0.72300
O2758       O  0.78642252  0.48155280  0.53931499    -0.73300
O2759       O  0.79128888  0.04318655  0.54056949    -0.61900
O2760       O  0.78212488  0.47903991  0.97597069    -0.70300
O2761       O  0.83122246  0.47425372  0.97423426    -0.69900
O2762       O  0.84017272  0.03723583  0.53774321    -0.61100
O2763       O  0.83556219  0.47790858  0.53606302    -0.73600
O2764       O  0.83840986  0.03785139  0.97326977    -0.72400
Cu2765     Cu  0.78441175  0.01202191  0.50846731     1.04600
Cu2766     Cu  0.83685241  0.00661359  0.50575246     1.04300
C2767       C  0.81459148  0.05049561  0.96426171     0.93900
C2768       C  0.81108803  0.47025398  0.54797532     0.93000
C2769       C  0.81748144  0.04969922  0.54947490     0.85200
C2770       C  0.80550404  0.46723382  0.96472729     0.91400
O2771       O  0.52840960  0.28424557  0.97042223    -0.72300
O2772       O  0.96766193  0.29157997  0.53722849    -0.73300
O2773       O  0.96637359  0.29338509  0.97373425    -0.61900
O2774       O  0.53185686  0.28849823  0.53441756    -0.70300
O2775       O  0.53540110  0.33761260  0.53139632    -0.69900
O2776       O  0.97005456  0.34262071  0.97394090    -0.61100
O2777       O  0.97279590  0.34062535  0.53523555    -0.73600
O2778       O  0.53254193  0.33344792  0.96886189    -0.72400
Cu2779     Cu  0.49805647  0.28849388  0.50445272     1.04600
Cu2780     Cu  0.50223038  0.34108894  0.50239924     1.04300
C2781       C  0.54012183  0.30765497  0.95961272     0.93900
C2782       C  0.96055632  0.31762905  0.54630311     0.93000
C2783       C  0.95754160  0.31895123  0.96474142     0.85200
C2784       C  0.54455735  0.31279670  0.54177583     0.91400
C2785       C  0.85081406  0.08866991  0.61611014    -0.20700
C2786       C  0.83527527  0.11583045  0.61637765    -0.08700
C2787       C  0.81259846  0.12053086  0.59512136     0.30100
C2788       C  0.80566564  0.09827145  0.57435317    -0.20700
C2789       C  0.82211660  0.07165776  0.57352804    -0.08700
C2790       C  0.84467174  0.06699800  0.59474238     0.30100
F2791       F  0.86092158  0.04145837  0.59477425    -0.19300
H2792       H  0.86822712  0.08436457  0.63226012     0.18500
H2793       H  0.78852841  0.10247039  0.55788909     0.18500
F2794       F  0.79836900  0.14712792  0.59312042    -0.19200
C2795       C  0.89997009  0.17423964  0.58497278    -0.20700
C2796       C  0.90194310  0.18888628  0.61243736    -0.08700
C2797       C  0.92539101  0.20881302  0.61754731     0.30100
C2798       C  0.94723289  0.21282479  0.59561335    -0.20700
C2799       C  0.94597555  0.19658417  0.56889945    -0.08700
C2800       C  0.92182484  0.17776189  0.56353244     0.30100
F2801       F  0.91976908  0.16208292  0.53773394    -0.19300
H2802       H  0.88198867  0.15893817  0.58059174     0.18500
H2803       H  0.96596002  0.22710844  0.60014989     0.18500
F2804       F  0.92834625  0.22261816  0.64427812    -0.19200
C2805       C  0.93481693  0.12169939  0.67357431    -0.20700
C2806       C  0.90665893  0.12071662  0.68680315    -0.08700
C2807       C  0.90023612  0.09752796  0.70687241     0.30100
C2808       C  0.92137059  0.07502600  0.71227136    -0.20700
C2809       C  0.94867631  0.07511174  0.69718846    -0.08700
C2810       C  0.95557122  0.09911200  0.67854617     0.30100
F2811       F  0.98214581  0.10016919  0.66433447    -0.19300
H2812       H  0.94030597  0.13945328  0.65827973     0.18500
H2813       H  0.91564986  0.05654369  0.72656684     0.18500
F2814       F  0.87292496  0.09527376  0.71936249    -0.19200
C2815       C  0.74568714  0.17841408  0.64889178    -0.20700
C2816       C  0.73200896  0.15079265  0.65297572    -0.08700
C2817       C  0.74958241  0.12585799  0.66011827     0.30100
C2818       C  0.78044228  0.12809802  0.66092216    -0.20700
C2819       C  0.79416814  0.15538216  0.65541035    -0.08700
C2820       C  0.77659023  0.18080994  0.65031659     0.30100
F2821       F  0.78932818  0.20766156  0.64559913    -0.19300
H2822       H  0.73241337  0.19802801  0.64409454     0.18500
H2823       H  0.79369370  0.10856572  0.66606093     0.18500
F2824       F  0.73702105  0.09967438  0.66756307    -0.19200
C2825       C  0.59918440  0.19657989  0.61131945    -0.20700
C2826       C  0.62247090  0.17674913  0.60429755    -0.08700
C2827       C  0.62339894  0.16397128  0.57569081     0.30100
C2828       C  0.60105721  0.17005336  0.55500028    -0.20700
C2829       C  0.57757492  0.18932562  0.56215195    -0.08700
C2830       C  0.57693392  0.20299987  0.59031884     0.30100
F2831       F  0.55381469  0.22085553  0.59817416    -0.19300
H2832       H  0.59762053  0.20620521  0.63339831     0.18500
H2833       H  0.60190004  0.15938841  0.53334683     0.18500
F2834       F  0.64579223  0.14533498  0.56769568    -0.19200
C2835       C  0.70358961  0.05672339  0.59629438    -0.20700
C2836       C  0.70729694  0.06506863  0.56651363    -0.08700
C2837       C  0.70894422  0.09537523  0.55919821     0.30100
C2838       C  0.70465034  0.11704187  0.58131119    -0.20700
C2839       C  0.69833817  0.10859868  0.61070464    -0.08700
C2840       C  0.69919524  0.07829576  0.61828994     0.30100
F2841       F  0.69353389  0.06939456  0.64658191    -0.19300
H2842       H  0.70205159  0.03342634  0.60218745     0.20500
H2843       H  0.70401476  0.14030456  0.57509923     0.18500
F2844       F  0.71222601  0.10391815  0.53039564    -0.19200
C2845       C  0.59934440  0.11115679  0.69721913    -0.20700
C2846       C  0.62026245  0.10536094  0.67454124    -0.08700
C2847       C  0.61864050  0.07802681  0.65923468     0.30100
C2848       C  0.59685476  0.05743687  0.66628310    -0.20700
C2849       C  0.57599131  0.06336420  0.68860083    -0.08700
C2850       C  0.57754713  0.09024194  0.70439291     0.30100
F2851       F  0.55670809  0.09722818  0.72504518    -0.19300
H2852       H  0.59894165  0.13237886  0.70857140     0.18500
H2853       H  0.59586388  0.03688896  0.65368110     0.18500
F2854       F  0.63755365  0.07101089  0.63690269    -0.19200
C2855       C  0.85336046  0.27604814  0.62559156    -0.20700
C2856       C  0.85639779  0.29223009  0.65220871    -0.08700
C2857       C  0.86170321  0.27685268  0.67894402     0.30100
C2858       C  0.86434784  0.24589718  0.67893284    -0.20700
C2859       C  0.86189917  0.22971926  0.65232461    -0.08700
C2860       C  0.85605985  0.24499019  0.62558613     0.30100
F2861       F  0.85192186  0.22988606  0.59973838    -0.19300
H2862       H  0.84871259  0.28749502  0.60486507     0.18500
H2863       H  0.86859781  0.23447668  0.69977274     0.18500
F2864       F  0.86513351  0.29180891  0.70499762    -0.19200
C2865       C  0.91497716  0.34331429  0.56303124    -0.20700
C2866       C  0.93696875  0.32186591  0.56860247    -0.08700
C2867       C  0.93637989  0.30585394  0.59545855     0.30100
C2868       C  0.91467681  0.31235066  0.61696771    -0.20700
C2869       C  0.89280410  0.33418469  0.61145001    -0.08700
C2870       C  0.89289042  0.34916240  0.58395090     0.30100
F2871       F  0.87160262  0.36960081  0.57720424    -0.19300
H2872       H  0.91486224  0.35556910  0.54225393     0.18500
H2873       H  0.91551608  0.30096955  0.63819566     0.18500
F2874       F  0.95766837  0.28525035  0.60153844    -0.19200
C2875       C  0.83607986  0.43346651  0.61856280    -0.20700
C2876       C  0.82249937  0.40560024  0.61656523    -0.08700
C2877       C  0.80245111  0.40004849  0.59308729     0.30100
C2878       C  0.79701637  0.42199044  0.57151158    -0.20700
C2879       C  0.81219650  0.44909636  0.57277838    -0.08700
C2880       C  0.83129831  0.45488106  0.59675264     0.30100
F2881       F  0.84604315  0.48102698  0.59859454    -0.19300
H2882       H  0.85143612  0.43824463  0.63653471     0.18500
H2883       H  0.78247137  0.41716342  0.55290066     0.18500
F2884       F  0.78985237  0.37293806  0.58976205    -0.19200
C2885       C  0.92374397  0.39723868  0.67085974    -0.20700
C2886       C  0.89641334  0.39963502  0.68559768    -0.08700
C2887       C  0.89238065  0.42230372  0.70699172     0.30100
C2888       C  0.91518180  0.44286121  0.71238071    -0.20700
C2889       C  0.94171352  0.44130213  0.69602945    -0.08700
C2890       C  0.94599760  0.41794552  0.67569103     0.30100
F2891       F  0.97149783  0.41571589  0.65968260    -0.19300
H2892       H  0.92748217  0.37983162  0.65454159     0.18500
H2893       H  0.91141744  0.46104779  0.72775709     0.18500
F2894       F  0.86594644  0.42587950  0.72105711    -0.19200
C2895       C  0.65919180  0.26634709  0.61949998    -0.20700
C2896       C  0.65489698  0.28178716  0.64641767    -0.08700
C2897       C  0.65332595  0.26557551  0.67306639     0.30100
C2898       C  0.65525229  0.23462324  0.67268294    -0.20700
C2899       C  0.65829508  0.21890125  0.64585835    -0.08700
C2900       C  0.66109011  0.23517424  0.61917407     0.30100
F2901       F  0.66669788  0.22111687  0.59299467    -0.19300
H2902       H  0.66150998  0.27845236  0.59880189     0.18500
H2903       H  0.65407010  0.22303352  0.69354157     0.18500
F2904       F  0.64908866  0.27956358  0.69956031    -0.19200
C2905       C  0.76883298  0.33515817  0.64985609    -0.20700
C2906       C  0.78265422  0.36274569  0.65349121    -0.08700
C2907       C  0.76500657  0.38850984  0.65674476     0.30100
C2908       C  0.73400459  0.38650930  0.65562919    -0.20700
C2909       C  0.72028292  0.35884860  0.65150588    -0.08700
C2910       C  0.73797781  0.33315083  0.64884895     0.30100
F2911       F  0.72547155  0.30613459  0.64439319    -0.19300
H2912       H  0.78204283  0.31509448  0.64725935     0.18500
H2913       H  0.72068683  0.40646816  0.65841204     0.18500
F2914       F  0.77760844  0.41537480  0.66177969    -0.19200
C2915       C  0.61559075  0.33697552  0.57822542    -0.20700
C2916       C  0.61485806  0.32148125  0.60527348    -0.08700
C2917       C  0.59255513  0.30020490  0.60995319     0.30100
C2918       C  0.57058823  0.29571626  0.58820188    -0.20700
C2919       C  0.57023416  0.31300788  0.56215957    -0.08700
C2920       C  0.59337583  0.33315819  0.55705159     0.30100
F2921       F  0.59389513  0.35010780  0.53204380    -0.19300
H2922       H  0.63263874  0.35337210  0.57415092     0.18500
H2923       H  0.55270661  0.28038758  0.59263701     0.18500
F2924       F  0.59051038  0.28566004  0.63632695    -0.19200
C2925       C  0.66270928  0.42422175  0.61230252    -0.20700
C2926       C  0.67802503  0.39696464  0.61177243    -0.08700
C2927       C  0.69894455  0.39163927  0.58904330     0.30100
C2928       C  0.70420064  0.41333278  0.56723839    -0.20700
C2929       C  0.68794810  0.44011826  0.56723769    -0.08700
C2930       C  0.66741170  0.44551638  0.59024390     0.30100
F2931       F  0.65176043  0.47141807  0.59135956    -0.19300
H2932       H  0.64646671  0.42875466  0.62955291     0.18500
H2933       H  0.71988129  0.40862046  0.54954028     0.18500
F2934       F  0.71285400  0.36487899  0.58677514    -0.19200
C2935       C  0.61251779  0.41094777  0.70178834    -0.20700
C2936       C  0.60598917  0.38886422  0.68060627    -0.08700
C2937       C  0.57787825  0.38867636  0.66704774     0.30100
C2938       C  0.55741827  0.41127237  0.67309061    -0.20700
C2939       C  0.56437712  0.43413392  0.69314709    -0.08700
C2940       C  0.59174766  0.43340250  0.70820470     0.30100
F2941       F  0.59932664  0.45563923  0.72713880    -0.19300
H2942       H  0.63423463  0.41173599  0.71214386     0.18500
H2943       H  0.53628146  0.41132341  0.66151938     0.18500
F2944       F  0.57046652  0.36700913  0.64735360    -0.19200
C2945       C  0.67191453  0.35664258  0.73684323    -0.20700
C2946       C  0.64638463  0.35019915  0.72026019    -0.08700
C2947       C  0.62000558  0.34272233  0.73515029     0.30100
C2948       C  0.61915695  0.34249539  0.76630808    -0.20700
C2949       C  0.64463728  0.34943576  0.78285967    -0.08700
C2950       C  0.67109660  0.35634164  0.76792163     0.30100
F2951       F  0.69589166  0.36373644  0.78340263    -0.19300
H2952       H  0.69237474  0.36245161  0.72565447     0.18500
H2953       H  0.59876452  0.33657726  0.77755061     0.18500
F2954       F  0.59536152  0.33501352  0.71958377    -0.19200
C2955       C  0.61473021  0.31457526  0.92352528    -0.20700
C2956       C  0.60690687  0.31456104  0.89332883    -0.08700
C2957       C  0.57753964  0.30831902  0.88492953     0.30100
C2958       C  0.55588356  0.30373281  0.90674981    -0.20700
C2959       C  0.56343488  0.30546297  0.93699291    -0.08700
C2960       C  0.59312298  0.31001804  0.94530278     0.30100
F2961       F  0.60079344  0.31189123  0.97450048    -0.19300
H2962       H  0.63721146  0.31987394  0.93023083     0.18500
H2963       H  0.53296449  0.30066698  0.90011546     0.18500
F2964       F  0.56942465  0.30879726  0.85580478    -0.19200
C2965       C  0.58546807  0.43173774  0.79849946    -0.20700
C2966       C  0.55831443  0.43104295  0.81376086    -0.08700
C2967       C  0.55191189  0.40667567  0.83211627     0.30100
C2968       C  0.57298184  0.38422149  0.83637936    -0.20700
C2969       C  0.60097211  0.38570634  0.82277586    -0.08700
C2970       C  0.60689183  0.40940035  0.80318518     0.30100
F2971       F  0.63413572  0.41252039  0.79077880    -0.19300
H2972       H  0.59094669  0.45071574  0.78481452     0.18500
H2973       H  0.56791651  0.36633910  0.85161484     0.18500
F2974       F  0.52567120  0.40521308  0.84691157    -0.19200
C2975       C  0.65426365  0.41827247  0.89461734    -0.20700
C2976       C  0.67082377  0.39169229  0.89404363    -0.08700
C2977       C  0.69342524  0.38739190  0.91537199     0.30100
C2978       C  0.69951680  0.40960269  0.93638715    -0.20700
C2979       C  0.68241355  0.43583639  0.93729099    -0.08700
C2980       C  0.65972580  0.44000728  0.91614610     0.30100
F2981       F  0.64307878  0.46529611  0.91601083    -0.19300
H2982       H  0.63687114  0.42219710  0.87835103     0.18500
H2983       H  0.71684449  0.40580258  0.95273689     0.18500
F2984       F  0.70873202  0.36134228  0.91681477    -0.19200
C2985       C  0.66359956  0.11818222  0.76444250    -0.20700
C2986       C  0.65452882  0.14344738  0.78053353    -0.08700
C2987       C  0.64560433  0.16906235  0.76509343     0.30100
C2988       C  0.64586054  0.16948341  0.73406085    -0.20700
C2989       C  0.65586148  0.14478886  0.71786291    -0.08700
C2990       C  0.66452578  0.11888316  0.73322452     0.30100
F2991       F  0.67438182  0.09460818  0.71808972    -0.19300
H2992       H  0.67067912  0.09827533  0.77609590     0.18500
H2993       H  0.63761888  0.18892626  0.72272654     0.18500
F2994       F  0.63620718  0.19359287  0.78000535    -0.19200
C2995       C  0.67342571  0.23151832  0.86663734    -0.20700
C2996       C  0.65103728  0.21523216  0.85250284    -0.08700
C2997       C  0.62671288  0.23032630  0.83985719     0.30100
C2998       C  0.62562765  0.26145088  0.84024474    -0.20700
C2999       C  0.64816776  0.27773866  0.85426218    -0.08700
C3000       C  0.67166644  0.26251601  0.86818214     0.30100
F3001       F  0.69222279  0.27746394  0.88426802    -0.19300
H3002       H  0.69180667  0.22014182  0.87728516     0.18500
H3003       H  0.60722454  0.27286828  0.82960945     0.18500
F3004       F  0.60418969  0.21499602  0.82705440    -0.19200
C3005       C  0.59405205  0.10915634  0.80303180    -0.20700
C3006       C  0.61852298  0.10181114  0.82114451    -0.08700
C3007       C  0.62052867  0.07317678  0.83345588     0.30100
C3008       C  0.59772625  0.05283332  0.82910393    -0.20700
C3009       C  0.57258516  0.06057488  0.81231386    -0.08700
C3010       C  0.57108219  0.08865891  0.79870507     0.30100
F3011       F  0.54624749  0.09720157  0.78376431    -0.19300
H3012       H  0.59176784  0.13136807  0.79397940     0.18500
H3013       H  0.59920448  0.03126110  0.83976083     0.18500
F3014       F  0.64403786  0.06526322  0.85074674    -0.19200
C3015       C  0.68013856  0.11360363  0.92262363    -0.20700
C3016       C  0.68978477  0.10856536  0.89340751    -0.08700
C3017       C  0.70644876  0.08273197  0.88696586     0.30100
C3018       C  0.71220100  0.06173198  0.90945300    -0.20700
C3019       C  0.70071951  0.06602833  0.93823298    -0.08700
C3020       C  0.68541347  0.09256223  0.94481939     0.30100
F3021       F  0.67429361  0.09747363  0.97251104    -0.19300
H3022       H  0.66708866  0.13325100  0.92789578     0.18500
H3023       H  0.72358455  0.04117326  0.90386146     0.18500
F3024       F  0.71471060  0.07645502  0.85859145    -0.19200
C3025       C  0.61811163  0.19535495  0.91218950    -0.20700
C3026       C  0.61281117  0.17369464  0.89019859    -0.08700
C3027       C  0.58501669  0.15972777  0.88930118     0.30100
C3028       C  0.56352760  0.16628649  0.91071496    -0.20700
C3029       C  0.56904996  0.18719423  0.93324388    -0.08700
C3030       C  0.59629187  0.20230128  0.93344912     0.30100
F3031       F  0.60258632  0.22215408  0.95533054    -0.19300
H3032       H  0.63954513  0.20597671  0.91372169     0.18500
H3033       H  0.54260809  0.15454063  0.91002810     0.18500
F3034       F  0.57867110  0.13942169  0.86786572    -0.19200
C3035       C  0.83730942  0.15508063  0.77206873    -0.20700
C3036       C  0.86347559  0.15889838  0.78850568    -0.08700
C3037       C  0.89039491  0.16370305  0.77348295     0.30100
C3038       C  0.89102817  0.16385356  0.74233734    -0.20700
C3039       C  0.86484511  0.15942334  0.72596903    -0.08700
C3040       C  0.83791990  0.15524466  0.74106143     0.30100
F3041       F  0.81233182  0.15039795  0.72584449    -0.19300
H3042       H  0.81638155  0.15147919  0.78329769     0.18500
H3043       H  0.91184721  0.16771812  0.73097104     0.18500
F3044       F  0.91580098  0.16897477  0.78884710    -0.19200
C3045       C  0.73970373  0.16863800  0.87281847    -0.20700
C3046       C  0.72656785  0.14878936  0.85274700    -0.08700
C3047       C  0.74456592  0.13210019  0.83332253     0.30100
C3048       C  0.77550820  0.13419136  0.83513752    -0.20700
C3049       C  0.78860941  0.15380152  0.85549350    -0.08700
C3050       C  0.77055393  0.17166260  0.87373690     0.30100
F3051       F  0.78283619  0.19171401  0.89264545    -0.19300
H3052       H  0.72605060  0.18179880  0.88771359     0.18500
H3053       H  0.78925890  0.12065147  0.82062446     0.18500
F3054       F  0.73220806  0.11376368  0.81278028    -0.19200
C3055       C  0.80782449  0.12105679  0.91869709    -0.20700
C3056       C  0.82805573  0.11492474  0.89562126    -0.08700
C3057       C  0.84148973  0.08670926  0.89407237     0.30100
C3058       C  0.83601176  0.06560421  0.91602496    -0.20700
C3059       C  0.81671004  0.07201311  0.93969782    -0.08700
C3060       C  0.80188005  0.09959943  0.94049622     0.30100
F3061       F  0.78350546  0.10658832  0.96345113    -0.19300
H3062       H  0.79796424  0.14292195  0.92089494     0.18500
H3063       H  0.84738949  0.04431912  0.91487945     0.18500
F3064       F  0.86068944  0.07983556  0.87177095    -0.19200
C3065       C  0.91950288  0.07586484  0.80329577    -0.20700
C3066       C  0.94559644  0.07473204  0.82041993    -0.08700
C3067       C  0.95078051  0.09705169  0.84169377     0.30100
C3068       C  0.92972639  0.11947369  0.84641753    -0.20700
C3069       C  0.90285378  0.11983767  0.83051504    -0.08700
C3070       C  0.89796999  0.09788443  0.80863155     0.30100
F3071       F  0.87167289  0.09628334  0.79397197    -0.19300
H3072       H  0.91498325  0.05863856  0.78705069     0.18500
H3073       H  0.93408276  0.13621036  0.86322555     0.18500
F3074       F  0.97608675  0.09698682  0.85819373    -0.19200
C3075       C  0.91515105  0.18107541  0.95179866    -0.20700
C3076       C  0.93951447  0.19903372  0.94500247    -0.08700
C3077       C  0.94013810  0.21430073  0.91769513     0.30100
C3078       C  0.91766309  0.20951838  0.89652819    -0.20700
C3079       C  0.89434735  0.18984383  0.90275007    -0.08700
C3080       C  0.89263790  0.17670489  0.93103581     0.30100
F3081       F  0.86983117  0.15844016  0.93809916    -0.19300
H3082       H  0.91413577  0.16946252  0.97291738     0.18500
H3083       H  0.91944766  0.21963601  0.87472173     0.18500
F3084       F  0.96362385  0.23162065  0.91053473    -0.19200
C3085       C  0.88031769  0.35743439  0.74144508    -0.20700
C3086       C  0.85402775  0.36199394  0.72520277    -0.08700
C3087       C  0.82706148  0.36582270  0.74049374     0.30100
C3088       C  0.82656734  0.36565467  0.77156652    -0.20700
C3089       C  0.85287518  0.36172656  0.78784765    -0.08700
C3090       C  0.87979058  0.35718699  0.77260655     0.30100
F3091       F  0.90533113  0.35170903  0.78776950    -0.19300
H3092       H  0.90115643  0.35371394  0.72996595     0.18500
H3093       H  0.80562652  0.36901571  0.78300723     0.18500
F3094       F  0.80129917  0.37052593  0.72540427    -0.19200
C3095       C  0.75971567  0.38589894  0.85305794    -0.20700
C3096       C  0.77745969  0.36019642  0.85573206    -0.08700
C3097       C  0.76364932  0.33228893  0.85633209     0.30100
C3098       C  0.73283653  0.33021796  0.85485260    -0.20700
C3099       C  0.71492327  0.35577110  0.85373673    -0.08700
C3100       C  0.72866835  0.38376897  0.85194934     0.30100
F3101       F  0.71223640  0.40890851  0.84828857    -0.19300
H3102       H  0.76988779  0.40756877  0.85135569     0.18500
H3103       H  0.72300081  0.30844629  0.85506452     0.18500
F3104       F  0.77984201  0.30688184  0.85921513    -0.19200
C3105       C  0.85695962  0.27602118  0.83405878    -0.20700
C3106       C  0.85124848  0.29141780  0.86063717    -0.08700
C3107       C  0.84720345  0.27534135  0.88716461     0.30100
C3108       C  0.84967162  0.24432960  0.88708494    -0.20700
C3109       C  0.85590257  0.22898664  0.86055160    -0.08700
C3110       C  0.85933470  0.24505957  0.83395320     0.30100
F3111       F  0.86563202  0.23088150  0.80797057    -0.19300
H3112       H  0.86014571  0.28808209  0.81343217     0.18500
H3113       H  0.84614367  0.23222841  0.90761164     0.18500
F3114       F  0.84011013  0.28953544  0.91291644    -0.19200
C3115       C  0.81865177  0.45429682  0.91313308    -0.20700
C3116       C  0.80388819  0.44648591  0.93941851    -0.08700
C3117       C  0.79248524  0.41762512  0.94242357     0.30100
C3118       C  0.79781036  0.39631109  0.92007496    -0.20700
C3119       C  0.81441417  0.40380237  0.89469714    -0.08700
C3120       C  0.82377771  0.43324014  0.89089766     0.30100
F3121       F  0.83934105  0.44122246  0.86631722    -0.19300
H3122       H  0.82757098  0.47646307  0.91050563     0.18500
H3123       H  0.79072120  0.37359955  0.92343756     0.18500
F3124       F  0.77860691  0.40942330  0.96791264    -0.19200
C3125       C  0.88648357  0.34650973  0.92963927    -0.20700
C3126       C  0.88760888  0.33314491  0.90140996    -0.08700
C3127       C  0.91116095  0.31340714  0.89475615     0.30100
C3128       C  0.93315349  0.30743119  0.91610846    -0.20700
C3129       C  0.93244390  0.32174914  0.94387504    -0.08700
C3130       C  0.90875176  0.34106462  0.95063456     0.30100
F3131       F  0.90735879  0.35493909  0.97748971    -0.19300
H3132       H  0.86861156  0.36179634  0.93518372     0.18500
H3133       H  0.95161665  0.29296352  0.91037939     0.18500
F3134       F  0.91413947  0.30159423  0.86708154    -0.19200
C3135       C  0.88622301  0.42324901  0.80915649    -0.20700
C3136       C  0.89148078  0.40028108  0.82977822    -0.08700
C3137       C  0.91931835  0.39817608  0.84376831     0.30100
C3138       C  0.94086905  0.41953688  0.83860802    -0.20700
C3139       C  0.93540587  0.44312653  0.81897231    -0.08700
C3140       C  0.90819916  0.44455277  0.80360438     0.30100
F3141       F  0.90223906  0.46745372  0.78483615    -0.19300
H3142       H  0.86480979  0.42531242  0.79830482     0.18500
H3143       H  0.96192884  0.41778010  0.85021633     0.18500
F3144       F  0.92567257  0.37548885  0.86267918    -0.19200
C3145       C  0.82670199  0.84182235  0.33818901     0.46100
H3146       H  0.81365515  0.82708891  0.32329139    -0.02900
C3147       C  0.85747412  0.87622319  0.37250525     0.46100
H3148       H  0.87066590  0.89111171  0.38712511    -0.02900
C3149       C  0.84886724  0.86138954  0.32118375    -0.16600
C3150       C  0.80744390  0.86340574  0.35666860    -0.16400
C3151       C  0.84560152  0.82485191  0.36125058    -0.16800
C3152       C  0.86537372  0.87927872  0.33949767    -0.16700
C3153       C  0.82386337  0.88202932  0.37437474    -0.16300
C3154       C  0.86198428  0.84310072  0.37940679    -0.16600
C3155       C  0.87000056  0.64648993  0.37345430     0.46100
H3156       H  0.88385030  0.63260190  0.38858829    -0.02900
C3157       C  0.83747176  0.67858706  0.33810431     0.46100
H3158       H  0.82317113  0.69219342  0.32313770    -0.02900
C3159       C  0.83683224  0.63939070  0.37528845    -0.16600
C3160       C  0.87216831  0.67993341  0.37984021    -0.16400
C3161       C  0.87813720  0.64263905  0.34048502    -0.16800
C3162       C  0.81966270  0.65650732  0.35680488    -0.16700
C3163       C  0.85518030  0.69699257  0.36085711    -0.16300
C3164       C  0.86092903  0.65967288  0.32169872    -0.16600
C3165       C  0.67346470  0.66757892  0.32956838     0.46100
H3166       H  0.68670663  0.68255581  0.31515195    -0.02900
C3167       C  0.64261892  0.63258786  0.36341612     0.46100
H3168       H  0.62953861  0.61768738  0.37806233    -0.02900
C3169       C  0.65435857  0.64520971  0.31217735    -0.16600
C3170       C  0.69249522  0.64824545  0.35051876    -0.16400
C3171       C  0.65149343  0.68411490  0.35008370    -0.16800
C3172       C  0.63834173  0.62657078  0.33005975    -0.16700
C3173       C  0.67619702  0.63005740  0.36854428    -0.16300
C3174       C  0.63498530  0.66565109  0.36767408    -0.16600
C3175       C  0.62720539  0.86176005  0.36741309     0.46100
H3176       H  0.61150952  0.87452812  0.38170566    -0.02900
C3177       C  0.66385138  0.83129363  0.33460266     0.46100
H3178       H  0.67930506  0.81804955  0.32047869    -0.02900
C3179       C  0.65994045  0.86980466  0.37277117    -0.16600
C3180       C  0.62525877  0.82812143  0.37214368    -0.16400
C3181       C  0.62227043  0.86633535  0.33386849    -0.16800
C3182       C  0.67937394  0.85374865  0.35523028    -0.16700
C3183       C  0.64444609  0.81201103  0.35492522    -0.16300
C3184       C  0.64178901  0.85031214  0.31651170    -0.16600
C3185       C  0.67082054  0.83179247  0.17122960     0.46100
H3186       H  0.68548857  0.81843422  0.18605085    -0.02900
C3187       C  0.63683461  0.86365784  0.13705546     0.46100
H3188       H  0.62232187  0.87744557  0.12245434    -0.02900
C3189       C  0.64765641  0.85059865  0.18828360    -0.16600
C3190       C  0.68791334  0.85417859  0.15182038    -0.16400
C3191       C  0.65270300  0.81301765  0.14898130    -0.16800
C3192       C  0.62974383  0.86744615  0.17015868    -0.16700
C3193       C  0.66977221  0.87109942  0.13386650    -0.16300
C3194       C  0.63485819  0.83011721  0.13084963    -0.16600
C3195       C  0.86671728  0.87496586  0.14209536     0.46100
H3196       H  0.88087238  0.88994053  0.12861145    -0.02900
C3197       C  0.83436492  0.83991161  0.17396616     0.46100
H3198       H  0.82059326  0.82477145  0.18767873    -0.02900
C3199       C  0.83322459  0.88010296  0.13756147    -0.16600
C3200       C  0.87208813  0.84201409  0.13515032    -0.16400
C3201       C  0.87217740  0.87825949  0.17567854    -0.16800
C3202       C  0.81601665  0.86125834  0.15425728    -0.16700
C3203       C  0.85544762  0.82332917  0.15248197    -0.16300
C3204       C  0.85453161  0.86021076  0.19264636    -0.16600
C3205       C  0.65255382  0.63199162  0.13223016     0.46100
H3206       H  0.64042350  0.61751693  0.11641225    -0.02900
C3207       C  0.68077050  0.66662049  0.16869011     0.46100
H3208       H  0.69309339  0.68109564  0.18445159    -0.02900
C3209       C  0.68643397  0.62810899  0.13095626    -0.16600
C3210       C  0.64660843  0.66537437  0.12670875    -0.16400
C3211       C  0.64425460  0.62661093  0.16500099    -0.16800
C3212       C  0.70134053  0.64658022  0.14999106    -0.16700
C3213       C  0.66172124  0.68383906  0.14590746    -0.16300
C3214       C  0.65933969  0.64499401  0.18417933    -0.16600
C3215       C  0.84520990  0.67759560  0.17420530     0.46100
H3216       H  0.83010712  0.69193478  0.18762822    -0.02900
C3217       C  0.88020760  0.64413547  0.14267624     0.46100
H3218       H  0.89522881  0.62980390  0.12915742    -0.02900
C3219       C  0.86619255  0.65815552  0.19312831    -0.16600
C3220       C  0.82874561  0.65569452  0.15382890    -0.16400
C3221       C  0.86551180  0.69523114  0.15326419    -0.16800
C3222       C  0.88483229  0.64054023  0.17642560    -0.16700
C3223       C  0.84721331  0.63793018  0.13710024    -0.16300
C3224       C  0.88387729  0.67747613  0.13639014    -0.16600
O3225       O  0.54058347  0.53084146  0.16790702    -0.72300
O3226       O  0.97217660  0.97384569  0.17411129    -0.73300
O3227       O  0.97762338  0.53705238  0.17539026    -0.61900
O3228       O  0.53305287  0.97043880  0.17094115    -0.70300
O3229       O  0.53809662  0.97174241  0.22014170    -0.69900
O3230       O  0.97764803  0.53619673  0.22486997    -0.61100
O3231       O  0.97534335  0.97167333  0.22346337    -0.73600
O3232       O  0.54228143  0.53417829  0.21724121    -0.72400
Cu3233     Cu  0.50633376  0.50334985  0.16848518     1.04600
Cu3234     Cu  0.50881361  0.50424688  0.22130254     1.04300
C3235       C  0.55212585  0.54150010  0.19153695     0.93900
C3236       C  0.96375374  0.96300568  0.19890284     0.93000
C3237       C  0.96892214  0.54768891  0.20030353     0.85200
C3238       C  0.54454053  0.96019433  0.19484129     0.91400
O3239       O  0.97602684  0.53927895  0.34302500    -0.72300
O3240       O  0.53035236  0.97061288  0.33803940    -0.73300
O3241       O  0.53919461  0.53021270  0.33671936    -0.61900
O3242       O  0.96856172  0.97435303  0.34117627    -0.70300
O3243       O  0.96486355  0.97448428  0.29180960    -0.69900
O3244       O  0.53402653  0.53355966  0.28759779    -0.61100
O3245       O  0.52893643  0.97133780  0.28856515    -0.73600
O3246       O  0.97064928  0.53887083  0.29384290    -0.72400
Cu3247     Cu  0.50442673  0.50339851  0.34064585     1.04600
Cu3248     Cu  0.50005206  0.50441031  0.28791209     1.04300
C3249       C  0.96447735  0.55001843  0.31933148     0.93900
C3250       C  0.53806507  0.95970857  0.31295579     0.93000
C3251       C  0.54747756  0.54063335  0.31166597     0.85200
C3252       C  0.95654614  0.96488051  0.31724459     0.91400
O3253       O  0.71186125  0.96651779  0.46872815    -0.72300
O3254       O  0.72785567  0.52628021  0.03225243    -0.73300
O3255       O  0.71799491  0.96385663  0.03151612    -0.61900
O3256       O  0.72208541  0.53040978  0.46699625    -0.70300
O3257       O  0.67363960  0.53870313  0.47170851    -0.69900
O3258       O  0.66938624  0.97209237  0.03374968    -0.61100
O3259       O  0.67905538  0.53266671  0.03633256    -0.73600
O3260       O  0.66340252  0.97551055  0.47107785    -0.72400
Cu3261     Cu  0.72265441  0.49461330  0.00065572     1.04600
Cu3262     Cu  0.67065147  0.50277702  0.00454868     1.04300
C3263       C  0.68541570  0.96134888  0.45981756     0.93900
C3264       C  0.70546986  0.53918821  0.04417574     0.93000
C3265       C  0.69259005  0.95848998  0.04301888     0.85200
C3266       C  0.69854696  0.54483306  0.45980293     0.91400
O3267       O  0.53590567  0.66797561  0.46815406    -0.72300
O3268       O  0.98000331  0.67172549  0.03513663    -0.73300
O3269       O  0.97283774  0.67286164  0.47502224    -0.61900
O3270       O  0.54191574  0.66862439  0.03143683    -0.70300
O3271       O  0.54481728  0.71781840  0.03458030    -0.69900
O3272       O  0.97738540  0.72196061  0.47350469    -0.61100
O3273       O  0.98213078  0.72102734  0.03657723    -0.73600
O3274       O  0.54259578  0.71679020  0.47014416    -0.72400
Cu3275     Cu  0.50752190  0.67042773  0.00347874     1.04600
Cu3276     Cu  0.51196261  0.72298488  0.00421876     1.04300
C3277       C  0.54827848  0.69143705  0.45837530     0.93900
C3278       C  0.97111446  0.69654986  0.04575281     0.93000
C3279       C  0.96397177  0.69819357  0.46565914     0.85200
C3280       C  0.55401781  0.69191593  0.04206163     0.91400
O3281       O  0.78778803  0.54541893  0.47607798    -0.72300
O3282       O  0.78666410  0.98069072  0.03983525    -0.73300
O3283       O  0.79242352  0.54275052  0.03954004    -0.61900
O3284       O  0.78136792  0.98059920  0.47601618    -0.70300
O3285       O  0.83050996  0.97650792  0.47387846    -0.69900
O3286       O  0.84125385  0.53639226  0.03664619    -0.61100
O3287       O  0.83571723  0.97627504  0.03657702    -0.73600
O3288       O  0.83681945  0.54021937  0.47369688    -0.72400
Cu3289     Cu  0.78534163  0.51103372  0.00792564     1.04600
Cu3290     Cu  0.83770422  0.50508578  0.00536238     1.04300
C3291       C  0.81275681  0.55225709  0.46453357     0.93900
C3292       C  0.81115464  0.96906389  0.04861113     0.93000
C3293       C  0.81869887  0.54919452  0.04826637     0.85200
C3294       C  0.80481554  0.96935997  0.46436399     0.91400
O3295       O  0.52690656  0.78368477  0.47184922    -0.72300
O3296       O  0.96853142  0.79185813  0.03683681    -0.73300
O3297       O  0.96409195  0.79318230  0.47276901    -0.61900
O3298       O  0.53147257  0.78832849  0.03629999    -0.70300
O3299       O  0.53486239  0.83753830  0.03450454    -0.69900
O3300       O  0.96830816  0.84236883  0.47280291    -0.61100
O3301       O  0.97271653  0.84100657  0.03483407    -0.73600
O3302       O  0.53107780  0.83285373  0.46959463    -0.72400
Cu3303     Cu  0.49828694  0.78885554  0.00583986     1.04600
Cu3304     Cu  0.50267403  0.84146216  0.00453958     1.04300
C3305       C  0.53857739  0.80693674  0.46065256     0.93900
C3306       C  0.96097089  0.81777426  0.04593072     0.93000
C3307       C  0.95540648  0.81883618  0.46385481     0.85200
C3308       C  0.54398471  0.81248876  0.04433731     0.91400
C3309       C  0.85180816  0.58704526  0.11566143    -0.20700
C3310       C  0.83757924  0.61486931  0.11531231    -0.08700
C3311       C  0.81610687  0.62070201  0.09309996     0.30100
C3312       C  0.80875610  0.59872761  0.07215534    -0.20700
C3313       C  0.82366251  0.57121513  0.07219989    -0.08700
C3314       C  0.84523135  0.56557060  0.09420637     0.30100
F3315       F  0.86006503  0.53921112  0.09493416    -0.19300
H3316       H  0.86843301  0.58203601  0.13243376     0.18500
H3317       H  0.79254263  0.60373242  0.05498626     0.18500
F3318       F  0.80357085  0.64808333  0.09044025    -0.19200
C3319       C  0.90189749  0.67240199  0.08488054    -0.20700
C3320       C  0.90391303  0.68727508  0.11223049    -0.08700
C3321       C  0.92679972  0.70801058  0.11669530     0.30100
C3322       C  0.94811780  0.71251736  0.09431198    -0.20700
C3323       C  0.94690259  0.69604347  0.06772278    -0.08700
C3324       C  0.92318322  0.67651446  0.06294653     0.30100
F3325       F  0.92102664  0.66070733  0.03723474    -0.19300
H3326       H  0.88426751  0.65660291  0.08088318     0.18500
H3327       H  0.96648343  0.72738363  0.09842174     0.18500
F3328       F  0.92975756  0.72222483  0.14320759    -0.19200
C3329       C  0.93606847  0.62036378  0.17548498    -0.20700
C3330       C  0.90761628  0.61948354  0.18803513    -0.08700
C3331       C  0.90070889  0.59653622  0.20822191     0.30100
C3332       C  0.92166642  0.57404121  0.21428656    -0.20700
C3333       C  0.94927641  0.57397281  0.19978234    -0.08700
C3334       C  0.95666744  0.59783325  0.18116559     0.30100
F3335       F  0.98354975  0.59869977  0.16752667    -0.19300
H3336       H  0.94192225  0.63796157  0.16015063     0.18500
H3337       H  0.91558809  0.55566278  0.22856563     0.18500
F3338       F  0.87312849  0.59449415  0.22015196    -0.19200
C3339       C  0.74759912  0.67602321  0.14577356    -0.20700
C3340       C  0.73400795  0.64872833  0.15182423    -0.08700
C3341       C  0.75163722  0.62420343  0.16011606     0.30100
C3342       C  0.78249732  0.62658493  0.16072505    -0.20700
C3343       C  0.79609434  0.65361739  0.15380445    -0.08700
C3344       C  0.77848985  0.67855838  0.14690022     0.30100
F3345       F  0.79122530  0.70498433  0.14019466    -0.19300
H3346       H  0.73425101  0.69524862  0.13976673     0.18500
H3347       H  0.79584607  0.60743156  0.16694026     0.18500
F3348       F  0.73910313  0.59835117  0.16875904    -0.19200
C3349       C  0.60163234  0.69526493  0.11146108    -0.20700
C3350       C  0.62449493  0.67509672  0.10403921    -0.08700
C3351       C  0.62475275  0.66221866  0.07547291     0.30100
C3352       C  0.60208796  0.66856050  0.05521942    -0.20700
C3353       C  0.57906628  0.68825371  0.06278153    -0.08700
C3354       C  0.57919193  0.70207090  0.09085528     0.30100
F3355       F  0.55662490  0.72048139  0.09902663    -0.19300
H3356       H  0.60055649  0.70492681  0.13354959     0.18500
H3357       H  0.60232523  0.65781084  0.03359253     0.18500
F3358       F  0.64678993  0.64327197  0.06712627    -0.19200
C3359       C  0.70516780  0.55386694  0.09721398    -0.20700
C3360       C  0.70945832  0.56178436  0.06738845    -0.08700
C3361       C  0.71183606  0.59193333  0.05971979     0.30100
C3362       C  0.70715867  0.61395476  0.08137153    -0.20700
C3363       C  0.70026873  0.60597799  0.11074790    -0.08700
C3364       C  0.70094269  0.57581373  0.11887218     0.30100
F3365       F  0.69535958  0.56746036  0.14735446    -0.19300
H3366       H  0.70325033  0.53067334  0.10339742     0.20500
H3367       H  0.70681622  0.63712258  0.07480785     0.18500
F3368       F  0.71620190  0.59999445  0.03092967    -0.19200
C3369       C  0.60040818  0.61012624  0.19611511    -0.20700
C3370       C  0.62182774  0.60384313  0.17403139    -0.08700
C3371       C  0.62045053  0.57618983  0.15928282     0.30100
C3372       C  0.59856720  0.55568962  0.16641126    -0.20700
C3373       C  0.57721546  0.56208253  0.18814169    -0.08700
C3374       C  0.57838259  0.58938769  0.20325239     0.30100
F3375       F  0.55697540  0.59693091  0.22313429    -0.19300
H3376       H  0.59972966  0.63161447  0.20691633     0.18500
H3377       H  0.59783611  0.53486595  0.15425081     0.18500
F3378       F  0.63964004  0.56882950  0.13731035    -0.19200
C3379       C  0.85468703  0.77435229  0.12553642    -0.20700
C3380       C  0.85788289  0.79045515  0.15217707    -0.08700
C3381       C  0.86368456  0.77508395  0.17880747     0.30100
C3382       C  0.86656696  0.74417194  0.17867695    -0.20700
C3383       C  0.86382679  0.72807605  0.15205942    -0.08700
C3384       C  0.85755236  0.74332212  0.12543080     0.30100
F3385       F  0.85308406  0.72819739  0.09965066    -0.19300
H3386       H  0.84967725  0.78582689  0.10491089     0.18500
H3387       H  0.87111355  0.73270606  0.19943342     0.18500
F3388       F  0.86725307  0.79000154  0.20486735    -0.19200
C3389       C  0.91495932  0.84241838  0.06294726    -0.20700
C3390       C  0.93751093  0.82153909  0.06840097    -0.08700
C3391       C  0.93767384  0.80571328  0.09537769     0.30100
C3392       C  0.91601845  0.81173784  0.11706469    -0.20700
C3393       C  0.89358626  0.83301211  0.11165234    -0.08700
C3394       C  0.89300522  0.84786349  0.08409898     0.30100
F3395       F  0.87119275  0.86780646  0.07755511    -0.19300
H3396       H  0.91432845  0.85456153  0.04211095     0.18500
H3397       H  0.91732116  0.80048405  0.13834262     0.18500
F3398       F  0.95964479  0.78581054  0.10138503    -0.19200
C3399       C  0.83737511  0.93136981  0.11836580    -0.20700
C3400       C  0.82270932  0.90399689  0.11710686    -0.08700
C3401       C  0.80128462  0.89936615  0.09459644     0.30100
C3402       C  0.79566178  0.92159911  0.07329081    -0.20700
C3403       C  0.81211447  0.94799501  0.07362761    -0.08700
C3404       C  0.83257279  0.95289850  0.09666139     0.30100
F3405       F  0.84871054  0.97825747  0.09760795    -0.19300
H3406       H  0.85363311  0.93567892  0.13563651     0.18500
H3407       H  0.78002713  0.91739327  0.05543182     0.18500
F3408       F  0.78743779  0.87282589  0.09178085    -0.19200
C3409       C  0.92438924  0.89434222  0.17354662    -0.20700
C3410       C  0.89632593  0.89773742  0.18661716    -0.08700
C3411       C  0.89140893  0.92130771  0.20676610     0.30100
C3412       C  0.91413045  0.94183110  0.21254853    -0.20700
C3413       C  0.94160486  0.93913145  0.19800243    -0.08700
C3414       C  0.94674842  0.91483685  0.17899963     0.30100
F3415       F  0.97319778  0.91154217  0.16481512    -0.19300
H3416       H  0.92866310  0.87627803  0.15809272     0.18500
H3417       H  0.90969208  0.96079836  0.22676030     0.18500
F3418       F  0.86425241  0.92568662  0.21913594    -0.19200
C3419       C  0.65986269  0.76506927  0.12044549    -0.20700
C3420       C  0.65542521  0.77999138  0.14766008    -0.08700
C3421       C  0.65447928  0.76325047  0.17402085     0.30100
C3422       C  0.65716643  0.73231266  0.17306048    -0.20700
C3423       C  0.66023967  0.71710962  0.14589842    -0.08700
C3424       C  0.66240551  0.73394104  0.11951195     0.30100
F3425       F  0.66791649  0.72047634  0.09299856    -0.19300
H3426       H  0.66179320  0.77756239  0.09993799     0.18500
H3427       H  0.65652432  0.72028635  0.19376194     0.18500
F3428       F  0.65010775  0.77669109  0.20077457    -0.19200
C3429       C  0.76922199  0.83262685  0.15072987    -0.20700
C3430       C  0.78311767  0.86024421  0.15408831    -0.08700
C3431       C  0.76551898  0.88596235  0.15775318     0.30100
C3432       C  0.73452262  0.88400377  0.15689086    -0.20700
C3433       C  0.72070744  0.85638744  0.15286008    -0.08700
C3434       C  0.73832079  0.83063004  0.15018400     0.30100
F3435       F  0.72569084  0.80360596  0.14612850    -0.19300
H3436       H  0.78239159  0.81255059  0.14800620     0.18500
H3437       H  0.72126770  0.90398460  0.15978754     0.18500
F3438       F  0.77819332  0.91277064  0.16287781    -0.19200
C3439       C  0.61601590  0.83479795  0.07963564    -0.20700
C3440       C  0.61515406  0.81951693  0.10677502    -0.08700
C3441       C  0.59243741  0.79879039  0.11186539     0.30100
C3442       C  0.57003657  0.79484637  0.09047991    -0.20700
C3443       C  0.56974088  0.81218800  0.06448731    -0.08700
C3444       C  0.59332364  0.83166503  0.05893427     0.30100
F3445       F  0.59377846  0.84874422  0.03403395    -0.19300
H3446       H  0.63342066  0.85073697  0.07525982     0.18500
H3447       H  0.55183390  0.77997685  0.09517624     0.18500
F3448       F  0.59044218  0.78437158  0.13831532    -0.19200
C3449       C  0.66517544  0.92214363  0.11352675    -0.20700
C3450       C  0.67928380  0.89428452  0.11246445    -0.08700
C3451       C  0.69919330  0.88804112  0.08908782     0.30100
C3452       C  0.70461353  0.90947539  0.06706596    -0.20700
C3453       C  0.68955139  0.93693886  0.06763606    -0.08700
C3454       C  0.67007537  0.94323006  0.09133457     0.30100
F3455       F  0.65561921  0.96978653  0.09296618    -0.19300
H3456       H  0.64966429  0.92729307  0.13128014     0.18500
H3457       H  0.71942641  0.90410030  0.04881217     0.18500
F3458       F  0.71185628  0.86069858  0.08647709    -0.19200
C3459       C  0.61335213  0.91146706  0.20093840    -0.20700
C3460       C  0.60663063  0.88896700  0.18023439    -0.08700
C3461       C  0.57848280  0.88879749  0.16673035     0.30100
C3462       C  0.55806108  0.91151054  0.17264079    -0.20700
C3463       C  0.56508070  0.93460307  0.19243394    -0.08700
C3464       C  0.59264056  0.93408903  0.20717860     0.30100
F3465       F  0.60036726  0.95655849  0.22577935    -0.19300
H3466       H  0.63510682  0.91229433  0.21120957     0.18500
H3467       H  0.53683628  0.91140509  0.16123447     0.18500
F3468       F  0.57090036  0.86689640  0.14736809    -0.19200
C3469       C  0.67106100  0.85641456  0.23798440    -0.20700
C3470       C  0.64564857  0.85031654  0.22111757    -0.08700
C3471       C  0.61872854  0.84419394  0.23567502     0.30100
C3472       C  0.61734851  0.84457948  0.26678735    -0.20700
C3473       C  0.64278958  0.85089839  0.28363036    -0.08700
C3474       C  0.66968363  0.85682886  0.26902432     0.30100
F3475       F  0.69443149  0.86382468  0.28476526    -0.19300
H3476       H  0.69188345  0.86135851  0.22704004     0.18500
H3477       H  0.59659185  0.83948510  0.27776908     0.18500
F3478       F  0.59403695  0.83718037  0.21984837    -0.19200
C3479       C  0.61272476  0.81438874  0.42399363    -0.20700
C3480       C  0.60447220  0.81540776  0.39392413    -0.08700
C3481       C  0.57509124  0.80905694  0.38568831     0.30100
C3482       C  0.55375204  0.80364505  0.40762968    -0.20700
C3483       C  0.56166493  0.80454509  0.43782385    -0.08700
C3484       C  0.59144225  0.80894843  0.44589347     0.30100
F3485       F  0.59945938  0.81002205  0.47504298    -0.19300
H3486       H  0.63527222  0.81955977  0.43056925     0.18500
H3487       H  0.53076154  0.80069356  0.40118843     0.18500
F3488       F  0.56665997  0.81014731  0.35667030    -0.19200
C3489       C  0.58522327  0.93391763  0.29876620    -0.20700
C3490       C  0.55751421  0.93332313  0.31296474    -0.08700
C3491       C  0.55017903  0.90893157  0.33092610     0.30100
C3492       C  0.57081013  0.88619092  0.33574179    -0.20700
C3493       C  0.59923053  0.88749376  0.32309724    -0.08700
C3494       C  0.60620005  0.91133811  0.30407511     0.30100
F3495       F  0.63398528  0.91429748  0.29287663    -0.19300
H3496       H  0.59140133  0.95294323  0.28544062     0.18500
H3497       H  0.56504687  0.86820114  0.35060497     0.18500
F3498       F  0.52343601  0.90774179  0.34481744    -0.19200
C3499       C  0.65217423  0.92053105  0.39394449    -0.20700
C3500       C  0.66813022  0.89357995  0.39433194    -0.08700
C3501       C  0.69041285  0.88940772  0.41599516     0.30100
C3502       C  0.69661099  0.91196078  0.43661168    -0.20700
C3503       C  0.68013462  0.93860446  0.43659962    -0.08700
C3504       C  0.65794990  0.94279045  0.41490095     0.30100
F3505       F  0.64212942  0.96857222  0.41367507    -0.19300
H3506       H  0.63507850  0.92434677  0.37733545     0.18500
H3507       H  0.71350752  0.90813203  0.45338673     0.18500
F3508       F  0.70526489  0.86314619  0.41815437    -0.19200
C3509       C  0.66640681  0.61952738  0.26427523    -0.20700
C3510       C  0.65431274  0.64411858  0.27937096    -0.08700
C3511       C  0.64316727  0.66830460  0.26309027     0.30100
C3512       C  0.64409969  0.66792529  0.23208190    -0.20700
C3513       C  0.65700167  0.64391571  0.21692682    -0.08700
C3514       C  0.66800255  0.61949556  0.23311925     0.30100
F3515       F  0.68075721  0.59606034  0.21883269    -0.19300
H3516       H  0.67523498  0.60078924  0.27667116     0.18500
H3517       H  0.63418153  0.68612743  0.21989868     0.18500
F3518       F  0.63104981  0.69213684  0.27716324    -0.19200
C3519       C  0.67119037  0.73300065  0.36604891    -0.20700
C3520       C  0.64931593  0.71687219  0.35099010    -0.08700
C3521       C  0.62506042  0.73199530  0.33824213     0.30100
C3522       C  0.62359849  0.76308037  0.33945134    -0.20700
C3523       C  0.64565597  0.77918547  0.35442168    -0.08700
C3524       C  0.66900663  0.76387934  0.36844123     0.30100
F3525       F  0.68894806  0.77859361  0.38548909    -0.19300
H3526       H  0.68936604  0.72155673  0.37693563     0.18500
H3527       H  0.60528573  0.77460625  0.32876224     0.18500
F3528       F  0.60289639  0.71673982  0.32473615    -0.19200
C3529       C  0.59331413  0.60997177  0.30183785    -0.20700
C3530       C  0.61801748  0.60299043  0.31973209    -0.08700
C3531       C  0.62073800  0.57433822  0.33183952     0.30100
C3532       C  0.59826820  0.55360429  0.32767319    -0.20700
C3533       C  0.57283088  0.56100348  0.31119956    -0.08700
C3534       C  0.57072022  0.58907673  0.29762460     0.30100
F3535       F  0.54565581  0.59719644  0.28282286    -0.19300
H3536       H  0.59055384  0.63218398  0.29290451     0.18500
H3537       H  0.60022101  0.53202537  0.33824275     0.18500
F3538       F  0.64458348  0.56681554  0.34881673    -0.19200
C3539       C  0.68013532  0.61698870  0.42182839    -0.20700
C3540       C  0.68827852  0.61078115  0.39237048    -0.08700
C3541       C  0.70342029  0.58409142  0.38584815     0.30100
C3542       C  0.70921039  0.56341747  0.40854225    -0.20700
C3543       C  0.69927168  0.56892032  0.43766133    -0.08700
C3544       C  0.68547685  0.59624731  0.44431546     0.30100
F3545       F  0.67588482  0.60224902  0.47236592    -0.19300
H3546       H  0.66819681  0.63732707  0.42711411     0.18500
H3547       H  0.71933753  0.54221478  0.40295619     0.18500
F3548       F  0.71006611  0.57675900  0.35730405    -0.19200
C3549       C  0.61782204  0.69650564  0.41132553    -0.20700
C3550       C  0.61168206  0.67550006  0.38894874    -0.08700
C3551       C  0.58366664  0.66200910  0.38823598     0.30100
C3552       C  0.56280118  0.66825258  0.41036449    -0.20700
C3553       C  0.56921289  0.68848281  0.43328710    -0.08700
C3554       C  0.59660105  0.70327113  0.43318279     0.30100
F3555       F  0.60361612  0.72260722  0.45530009    -0.19300
H3556       H  0.63947131  0.70669096  0.41270483     0.18500
H3557       H  0.54167788  0.65686433  0.40988444     0.18500
F3558       F  0.57658488  0.64245075  0.36632783    -0.19200
C3559       C  0.83705461  0.65652970  0.27199376    -0.20700
C3560       C  0.86308400  0.65987558  0.28877672    -0.08700
C3561       C  0.89033365  0.66360615  0.27397307     0.30100
C3562       C  0.89140136  0.66300968  0.24280740    -0.20700
C3563       C  0.86534318  0.65894162  0.22610116    -0.08700
C3564       C  0.83809385  0.65603785  0.24096572     0.30100
F3565       F  0.81253350  0.65176678  0.22553341    -0.19300
H3566       H  0.81586839  0.65368044  0.28298080     0.18500
H3567       H  0.91249369  0.66604651  0.23168696     0.18500
F3568       F  0.91569772  0.66852421  0.28953309    -0.19200
C3569       C  0.73834768  0.67103794  0.37076404    -0.20700
C3570       C  0.72509948  0.65039356  0.35163044    -0.08700
C3571       C  0.74299347  0.63234909  0.33333716     0.30100
C3572       C  0.77394701  0.63409711  0.33528865    -0.20700
C3573       C  0.78711904  0.65457525  0.35470289    -0.08700
C3574       C  0.76920149  0.67361904  0.37182550     0.30100
F3575       F  0.78164164  0.69427314  0.38995623    -0.19300
H3576       H  0.72480385  0.68506240  0.38492876     0.18500
H3577       H  0.78765037  0.61970196  0.32156125     0.18500
F3578       F  0.73053231  0.61314362  0.31368378    -0.19200
C3579       C  0.80479581  0.62162118  0.41745287    -0.20700
C3580       C  0.82600622  0.61566722  0.39521451    -0.08700
C3581       C  0.84012669  0.58778347  0.39446422     0.30100
C3582       C  0.83460698  0.56698070  0.41660450    -0.20700
C3583       C  0.81456872  0.57333413  0.43965035    -0.08700
C3584       C  0.79876265  0.60038130  0.43942856     0.30100
F3585       F  0.77931518  0.60712774  0.46155346    -0.19300
H3586       H  0.79423447  0.64322633  0.41891908     0.18500
H3587       H  0.84660118  0.54600712  0.41615022     0.18500
F3588       F  0.86011703  0.58099949  0.37284944    -0.19200
C3589       C  0.91724837  0.57601564  0.30537342    -0.20700
C3590       C  0.94376285  0.57540538  0.32186381    -0.08700
C3591       C  0.94939867  0.59822087  0.34247344     0.30100
C3592       C  0.92849801  0.62080451  0.34703672    -0.20700
C3593       C  0.90141998  0.62086063  0.33154142    -0.08700
C3594       C  0.89592137  0.59827106  0.31051431     0.30100
F3595       F  0.86926320  0.59644827  0.29653226    -0.19300
H3596       H  0.91235687  0.55834277  0.28973286     0.18500
H3597       H  0.93314099  0.63795077  0.36334691     0.18500
F3598       F  0.97505882  0.59852919  0.35839957    -0.19200
C3599       C  0.91378175  0.68047493  0.45247380    -0.20700
C3600       C  0.93770443  0.69916374  0.44598850    -0.08700
C3601       C  0.93731315  0.71567684  0.41940821     0.30100
C3602       C  0.91456616  0.71125288  0.39841790    -0.20700
C3603       C  0.89182606  0.69074847  0.40410553    -0.08700
C3604       C  0.89086952  0.67657524  0.43197102     0.30100
F3605       F  0.86844224  0.65775557  0.43881208    -0.19300
H3606       H  0.91338617  0.66800069  0.47311590     0.18500
H3607       H  0.91579204  0.72229528  0.37703203     0.18500
F3608       F  0.96019487  0.73390453  0.41261575    -0.19200
C3609       C  0.87963693  0.85618687  0.24247212    -0.20700
C3610       C  0.85362129  0.86001465  0.22561047    -0.08700
C3611       C  0.82625029  0.86322161  0.24031563     0.30100
C3612       C  0.82509610  0.86350270  0.27136583    -0.20700
C3613       C  0.85111061  0.86046368  0.28828008    -0.08700
C3614       C  0.87842532  0.85616293  0.27363181     0.30100
F3615       F  0.90372202  0.85113152  0.28935074    -0.19300
H3616       H  0.90079282  0.85279009  0.23149075     0.18500
H3617       H  0.80383958  0.86658994  0.28227655     0.18500
F3618       F  0.80066663  0.86691415  0.22467435    -0.19200
C3619       C  0.75681975  0.88742709  0.35233718    -0.20700
C3620       C  0.77455535  0.86184277  0.35599913    -0.08700
C3621       C  0.76078543  0.83398258  0.35792605     0.30100
C3622       C  0.73001968  0.83184059  0.35677664    -0.20700
C3623       C  0.71212983  0.85729625  0.35464894    -0.08700
C3624       C  0.72576086  0.88520916  0.35151146     0.30100
F3625       F  0.70918803  0.91005918  0.34667424    -0.19300
H3626       H  0.76701167  0.90899321  0.34967822     0.18500
H3627       H  0.72019917  0.81010687  0.35795109     0.18500
F3628       F  0.77698383  0.80870366  0.36172728    -0.19200
C3629       C  0.85144683  0.77674148  0.33496443    -0.20700
C3630       C  0.84670143  0.79200603  0.36177509    -0.08700
C3631       C  0.84400444  0.77586994  0.38845609     0.30100
C3632       C  0.84718877  0.74493182  0.38825628    -0.20700
C3633       C  0.85283398  0.72977877  0.36147529    -0.08700
C3634       C  0.85455195  0.74591837  0.33473872     0.30100
F3635       F  0.86005493  0.73200898  0.30843491    -0.19300
H3636       H  0.85364284  0.78882162  0.31421661     0.18500
H3637       H  0.84477269  0.73276392  0.40890903     0.18500
F3638       F  0.83790768  0.78993031  0.41453720    -0.19200
C3639       C  0.82027138  0.95560264  0.41360029    -0.20700
C3640       C  0.80324043  0.94892280  0.43878242    -0.08700
C3641       C  0.78874893  0.92138529  0.44040988     0.30100
C3642       C  0.79345631  0.89990857  0.41807059    -0.20700
C3643       C  0.81234528  0.90603652  0.39394339    -0.08700
C3644       C  0.82460598  0.93451903  0.39126607     0.30100
F3645       F  0.84224047  0.94139900  0.36778138    -0.19300
H3646       H  0.83137457  0.97684008  0.41189215     0.18500
H3647       H  0.78403022  0.87796951  0.42060715     0.18500
F3648       F  0.77239055  0.91435356  0.46473513    -0.19200
C3649       C  0.88466820  0.84815778  0.42959974    -0.20700
C3650       C  0.88420210  0.83344508  0.40203540    -0.08700
C3651       C  0.90674229  0.81245903  0.39554458     0.30100
C3652       C  0.92907426  0.80639548  0.41648816    -0.20700
C3653       C  0.92993052  0.82198573  0.44352498    -0.08700
C3654       C  0.90746632  0.84281635  0.45000692     0.30100
F3655       F  0.90783138  0.85833749  0.47597524    -0.19300
H3656       H  0.86770603  0.86449386  0.43501601     0.18500
H3657       H  0.94671479  0.79092610  0.41084487     0.18500
F3658       F  0.90855362  0.79945334  0.36831624    -0.19200
C3659       C  0.88495230  0.92175750  0.30898509    -0.20700
C3660       C  0.88961966  0.89924310  0.33019982    -0.08700
C3661       C  0.91708242  0.89730629  0.34495312     0.30100
C3662       C  0.93882623  0.91846770  0.33988943    -0.20700
C3663       C  0.93388835  0.94166788  0.31965889    -0.08700
C3664       C  0.90710986  0.94283969  0.30355730     0.30100
F3665       F  0.90165936  0.96537972  0.28421950    -0.19300
H3666       H  0.86380454  0.92370520  0.29760270     0.18500
H3667       H  0.95956679  0.91692060  0.35209543     0.18500
F3668       F  0.92282473  0.87508599  0.36460352    -0.19200
C3669       C  0.82843929  0.84131423  0.83821521     0.46100
H3670       H  0.81531443  0.82664341  0.82331206    -0.02900
C3671       C  0.85924935  0.87556045  0.87272251     0.46100
H3672       H  0.87238513  0.89031539  0.88753679    -0.02900
C3673       C  0.85035909  0.86131711  0.82129528    -0.16600
C3674       C  0.80920048  0.86254608  0.85708997    -0.16400
C3675       C  0.84756073  0.82416317  0.86091257    -0.16800
C3676       C  0.86699300  0.87912368  0.83966853    -0.16700
C3677       C  0.82559253  0.88110641  0.87487464    -0.16300
C3678       C  0.86390281  0.84232549  0.87915779    -0.16600
C3679       C  0.87207958  0.64562681  0.87382001     0.46100
H3680       H  0.88636294  0.63204503  0.88881973    -0.02900
C3681       C  0.83852225  0.67735012  0.83906321     0.46100
H3682       H  0.82386898  0.69085629  0.82433987    -0.02900
C3683       C  0.83899202  0.63817026  0.87649427    -0.16600
C3684       C  0.87419872  0.67921446  0.87977514    -0.16400
C3685       C  0.87951911  0.64162023  0.84065408    -0.16800
C3686       C  0.82129671  0.65522532  0.85835816    -0.16700
C3687       C  0.85663827  0.69603139  0.86117387    -0.16300
C3688       C  0.86175574  0.65852676  0.82223070    -0.16600
C3689       C  0.67527995  0.66595813  0.83347080     0.46100
H3690       H  0.68893220  0.68076736  0.81928653    -0.02900
C3691       C  0.64401484  0.63142010  0.86726290     0.46100
H3692       H  0.63072238  0.61674268  0.88194207    -0.02900
C3693       C  0.65564213  0.64405054  0.81588187    -0.16600
C3694       C  0.69407459  0.64623310  0.85416448    -0.16400
C3695       C  0.65380293  0.68284760  0.85417707    -0.16800
C3696       C  0.63939390  0.62552633  0.83387083    -0.16700
C3697       C  0.67758914  0.62822722  0.87221167    -0.16300
C3698       C  0.63699081  0.66462089  0.87171713    -0.16600
C3699       C  0.62928695  0.86114485  0.86625813     0.46100
H3700       H  0.61387764  0.87443474  0.88039832    -0.02900
C3701       C  0.66535314  0.82976613  0.83369102     0.46100
H3702       H  0.68068123  0.81619925  0.81973688    -0.02900
C3703       C  0.66203308  0.86892912  0.87121841    -0.16600
C3704       C  0.62713521  0.82766598  0.87190766    -0.16400
C3705       C  0.62400534  0.86505599  0.83271398    -0.16800
C3706       C  0.68121695  0.85248199  0.85386658    -0.16700
C3707       C  0.64597373  0.81097477  0.85464477    -0.16300
C3708       C  0.64318139  0.84858811  0.81543424    -0.16600
C3709       C  0.66986555  0.83089410  0.66975791     0.46100
H3710       H  0.68432101  0.81716964  0.68447852    -0.02900
C3711       C  0.63593868  0.86296545  0.63570110     0.46100
H3712       H  0.62131138  0.87663623  0.62111228    -0.02900
C3713       C  0.64677399  0.84955128  0.68696251    -0.16600
C3714       C  0.68697236  0.85355358  0.65061452    -0.16400
C3715       C  0.65172289  0.81242578  0.64742570    -0.16800
C3716       C  0.62880789  0.86646097  0.66890943    -0.16700
C3717       C  0.66889676  0.87068861  0.63269716    -0.16300
C3718       C  0.63404607  0.82950262  0.62926338    -0.16600
C3719       C  0.86518198  0.87571791  0.64203670     0.46100
H3720       H  0.87878389  0.89100448  0.62832825    -0.02900
C3721       C  0.83349887  0.84035032  0.67426483     0.46100
H3722       H  0.81996917  0.82508781  0.68809336    -0.02900
C3723       C  0.83168555  0.88055941  0.63810025    -0.16600
C3724       C  0.87065135  0.84282563  0.63482266    -0.16400
C3725       C  0.87120455  0.87888383  0.67556594    -0.16800
C3726       C  0.81480436  0.86163674  0.65489035    -0.16700
C3727       C  0.85434156  0.82401291  0.65235726    -0.16300
C3728       C  0.85389611  0.86064546  0.69272744    -0.16600
C3729       C  0.65116684  0.63191304  0.63490555     0.46100
H3730       H  0.63907800  0.61709816  0.61938332    -0.02900
C3731       C  0.67920645  0.66747222  0.67058970     0.46100
H3732       H  0.69142954  0.68267563  0.68572378    -0.02900
C3733       C  0.68508929  0.62902484  0.63276428    -0.16600
C3734       C  0.64419402  0.66497826  0.62926594    -0.16400
C3735       C  0.64380395  0.62649603  0.66795407    -0.16800
C3736       C  0.69993744  0.64796071  0.65145221    -0.16700
C3737       C  0.65889353  0.68380755  0.64822564    -0.16300
C3738       C  0.65912821  0.64507123  0.68691221    -0.16600
C3739       C  0.84460580  0.67868425  0.67533787     0.46100
H3740       H  0.82992468  0.69309914  0.68914485    -0.02900
C3741       C  0.87878085  0.64510282  0.64306006     0.46100
H3742       H  0.89342466  0.63070670  0.62919853    -0.02900
C3743       C  0.86587808  0.65898640  0.69374379    -0.16600
C3744       C  0.82753363  0.65697274  0.65530594    -0.16400
C3745       C  0.86458558  0.69617661  0.65392545    -0.16800
C3746       C  0.88420173  0.64143791  0.67660535    -0.16700
C3747       C  0.84563474  0.63912352  0.63825865    -0.16300
C3748       C  0.88254609  0.67834417  0.63675195    -0.16600
O3749       O  0.53928870  0.53220018  0.67141959    -0.72300
O3750       O  0.97123768  0.97555018  0.67234822    -0.73300
O3751       O  0.97858718  0.53868604  0.67239177    -0.61900
O3752       O  0.53305241  0.97013895  0.66920304    -0.70300
O3753       O  0.53814749  0.97148439  0.71840631    -0.69900
O3754       O  0.97914935  0.53772544  0.72185908    -0.61100
O3755       O  0.97377935  0.97358392  0.72172589    -0.73600
O3756       O  0.54128149  0.53505497  0.72077915    -0.72400
Cu3757     Cu  0.50506461  0.50484265  0.67181698     1.04600
Cu3758     Cu  0.50785059  0.50501210  0.72465569     1.04300
C3759       C  0.55103546  0.54253283  0.69507784     0.93900
C3760       C  0.96251924  0.96474751  0.69706715     0.93000
C3761       C  0.97012183  0.54926996  0.69742196     0.85200
C3762       C  0.54450129  0.95988124  0.69312213     0.91400
O3763       O  0.97801578  0.53864065  0.84082371    -0.72300
O3764       O  0.53128774  0.96815803  0.83725975    -0.73300
O3765       O  0.53859548  0.52968816  0.84000881    -0.61900
O3766       O  0.97026119  0.97544592  0.84163128    -0.70300
O3767       O  0.96713056  0.97446142  0.79225288    -0.69900
O3768       O  0.53425706  0.53311030  0.79083159    -0.61100
O3769       O  0.52970502  0.96945776  0.78779901    -0.73600
O3770       O  0.97184226  0.53862068  0.79173816    -0.72400
Cu3771     Cu  0.50373084  0.50280675  0.84329254     1.04600
Cu3772     Cu  0.50017325  0.50393066  0.79052678     1.04300
C3773       C  0.96627419  0.54973158  0.81738363     0.93900
C3774       C  0.53905416  0.95765364  0.81202770     0.93000
C3775       C  0.54734753  0.54014613  0.81512986     0.85200
C3776       C  0.95836679  0.96551063  0.81779995     0.91400
O3777       O  0.71434021  0.96418240  0.96806344    -0.72300
O3778       O  0.72611853  0.53023642  0.53080555    -0.73300
O3779       O  0.71622263  0.96648253  0.53224692    -0.61900
O3780       O  0.72298457  0.52655567  0.96865381    -0.70300
O3781       O  0.67457258  0.53455093  0.97409216    -0.69900
O3782       O  0.66756806  0.97418949  0.53458052    -0.61100
O3783       O  0.67731688  0.53711340  0.53404163    -0.73600
O3784       O  0.66587695  0.97328774  0.97029509    -0.72400
Cu3785     Cu  0.72115002  0.49856241  0.49910972     1.04600
Cu3786     Cu  0.66915418  0.50709536  0.50227009     1.04300
C3787       C  0.68791173  0.95914156  0.95908127     0.93900
C3788       C  0.70365162  0.54333667  0.54239310     0.93000
C3789       C  0.69091621  0.96077697  0.54380255     0.85200
C3790       C  0.69929543  0.54095818  0.96194156     0.91400
O3791       O  0.53535993  0.66960112  0.96922540    -0.72300
O3792       O  0.97982636  0.67120535  0.53651223    -0.73300
O3793       O  0.97489080  0.67421631  0.97358485    -0.61900
O3794       O  0.54226417  0.66686001  0.53066780    -0.70300
O3795       O  0.54482277  0.71606555  0.53397749    -0.69900
O3796       O  0.97979223  0.72329895  0.97273506    -0.61100
O3797       O  0.98121694  0.72056731  0.53714660    -0.73600
O3798       O  0.54218664  0.71841326  0.97087566    -0.72400
Cu3799     Cu  0.50797614  0.66862432  0.50246726     1.04600
Cu3800     Cu  0.51229227  0.72117963  0.50341643     1.04300
C3801       C  0.54799868  0.69291777  0.95947484     0.93900
C3802       C  0.97072775  0.69607100  0.54686182     0.93000
C3803       C  0.96639583  0.69969744  0.96435789     0.85200
C3804       C  0.55401064  0.69021543  0.54158860     0.91400
O3805       O  0.78891021  0.54239602  0.97570339    -0.72300
O3806       O  0.78483679  0.97979633  0.53989352    -0.73300
O3807       O  0.79190762  0.54492161  0.53973632    -0.61900
O3808       O  0.78290041  0.98072317  0.97586065    -0.70300
O3809       O  0.83199465  0.97628069  0.97348251    -0.69900
O3810       O  0.84086752  0.53954844  0.53670932    -0.61100
O3811       O  0.83395450  0.97556440  0.53700892    -0.73600
O3812       O  0.83775444  0.53580779  0.97345651    -0.72400
Cu3813     Cu  0.78531387  0.51364807  0.50780117     1.04600
Cu3814     Cu  0.83781488  0.50892900  0.50476014     1.04300
C3815       C  0.81408948  0.54855667  0.96416183     0.93900
C3816       C  0.80929627  0.96818204  0.54871656     0.93000
C3817       C  0.81805299  0.55162555  0.54858545     0.85200
C3818       C  0.80620628  0.96907866  0.96429176     0.91400
O3819       O  0.52882855  0.78687626  0.97280040    -0.72300
O3820       O  0.96779010  0.79377357  0.53644580    -0.73300
O3821       O  0.96466139  0.79084054  0.97315640    -0.61900
O3822       O  0.53080777  0.78666732  0.53512900    -0.70300
O3823       O  0.53531553  0.83568228  0.53151861    -0.69900
O3824       O  0.96907754  0.84001393  0.97285173    -0.61100
O3825       O  0.97176954  0.84294842  0.53482186    -0.73600
O3826       O  0.53305945  0.83606457  0.97261165    -0.72400
Cu3827     Cu  0.49710145  0.78687253  0.50532641     1.04600
Cu3828     Cu  0.50212500  0.83938912  0.50257088     1.04300
C3829       C  0.54102486  0.81050482  0.96299971     0.93900
C3830       C  0.96000656  0.81959054  0.54565109     0.93000
C3831       C  0.95610033  0.81646812  0.96407639     0.85200
C3832       C  0.54398835  0.81078620  0.54212092     0.91400
C3833       C  0.85003741  0.58840027  0.61688843    -0.20700
C3834       C  0.83566530  0.61613771  0.61671216    -0.08700
C3835       C  0.81415066  0.62209585  0.59460569     0.30100
C3836       C  0.80718511  0.60040290  0.57329096    -0.20700
C3837       C  0.82249406  0.57312565  0.57296265    -0.08700
C3838       C  0.84385559  0.56724099  0.59507898     0.30100
F3839       F  0.85897012  0.54104136  0.59548738    -0.19300
H3840       H  0.86663445  0.58331253  0.63367133     0.18500
H3841       H  0.79101953  0.60549121  0.55610245     0.18500
F3842       F  0.80125775  0.64935330  0.59238122    -0.19200
C3843       C  0.90080985  0.67304736  0.58537750    -0.20700
C3844       C  0.90274474  0.68798606  0.61269648    -0.08700
C3845       C  0.92604837  0.70817726  0.61747212     0.30100
C3846       C  0.94774486  0.71220092  0.59537159    -0.20700
C3847       C  0.94655034  0.69565738  0.56882966    -0.08700
C3848       C  0.92254792  0.67655433  0.56379123     0.30100
F3849       F  0.92048252  0.66066040  0.53812391    -0.19300
H3850       H  0.88292949  0.65757506  0.58120101     0.18500
H3851       H  0.96629562  0.72679826  0.59964145     0.18500
F3852       F  0.92902097  0.72226973  0.64404816    -0.19200
C3853       C  0.93566140  0.62189219  0.67404175    -0.20700
C3854       C  0.90758399  0.62058666  0.68743992    -0.08700
C3855       C  0.90149793  0.59726416  0.70743036     0.30100
C3856       C  0.92287286  0.57492973  0.71258668    -0.20700
C3857       C  0.95008113  0.57531508  0.69732177    -0.08700
C3858       C  0.95664570  0.59945635  0.67874239     0.30100
F3859       F  0.98308516  0.60078187  0.66430035    -0.19300
H3860       H  0.94087919  0.63974795  0.65876529     0.18500
H3861       H  0.91740103  0.55632206  0.72681490     0.18500
F3862       F  0.87426930  0.59470989  0.72003547    -0.19200
C3863       C  0.74621547  0.67783169  0.64865340    -0.20700
C3864       C  0.73263499  0.65025947  0.65338373    -0.08700
C3865       C  0.75030090  0.62551995  0.66093279     0.30100
C3866       C  0.78115121  0.62788718  0.66169474    -0.20700
C3867       C  0.79479677  0.65512926  0.65576500    -0.08700
C3868       C  0.77713563  0.68036331  0.65002587     0.30100
F3869       F  0.78981494  0.70712051  0.64467166    -0.19300
H3870       H  0.73285266  0.69728571  0.64346868     0.18500
H3871       H  0.79446522  0.60849740  0.66720295     0.18500
F3872       F  0.73779834  0.59941848  0.66881287    -0.19200
C3873       C  0.59966533  0.69464775  0.61221673    -0.20700
C3874       C  0.62272991  0.67437003  0.60578906    -0.08700
C3875       C  0.62374577  0.66106291  0.57741597     0.30100
C3876       C  0.60168232  0.66705752  0.55642809    -0.20700
C3877       C  0.57845374  0.68679564  0.56304053    -0.08700
C3878       C  0.57777228  0.70103785  0.59089823     0.30100
F3879       F  0.55489841  0.71945128  0.59817698    -0.19300
H3880       H  0.59785127  0.70458513  0.63412283     0.18500
H3881       H  0.60254394  0.65597869  0.53498243     0.18500
F3882       F  0.64586937  0.64193971  0.56992085    -0.19200
C3883       C  0.70456704  0.55639840  0.59583717    -0.20700
C3884       C  0.70745229  0.56543556  0.56615410    -0.08700
C3885       C  0.70841705  0.59590241  0.55944872     0.30100
C3886       C  0.70454361  0.61702577  0.58214022    -0.20700
C3887       C  0.69891421  0.60788572  0.61146244    -0.08700
C3888       C  0.70028280  0.57744146  0.61838041     0.30100
F3889       F  0.69538106  0.56788650  0.64659491    -0.19300
H3890       H  0.70356851  0.53295523  0.60126670     0.20500
H3891       H  0.70352692  0.64041177  0.57644987     0.18500
F3892       F  0.71065993  0.60510111  0.53074940    -0.19200
C3893       C  0.60017982  0.61050432  0.69953591    -0.20700
C3894       C  0.62123929  0.60401663  0.67717008    -0.08700
C3895       C  0.61949692  0.57640769  0.66241928     0.30100
C3896       C  0.59737626  0.55621972  0.66961887    -0.20700
C3897       C  0.57634745  0.56279259  0.69162430    -0.08700
C3898       C  0.57808311  0.58994415  0.70694111     0.30100
F3899       F  0.55721137  0.59748360  0.72736780    -0.19300
H3900       H  0.60011418  0.63190834  0.71057987     0.18500
H3901       H  0.59627936  0.53544989  0.65739708     0.18500
F3902       F  0.63872875  0.56873260  0.64056206    -0.19200
C3903       C  0.85282058  0.77491047  0.62575935    -0.20700
C3904       C  0.85703227  0.79122201  0.65211461    -0.08700
C3905       C  0.86402473  0.77615712  0.67862006     0.30100
C3906       C  0.86685801  0.74527218  0.67872680    -0.20700
C3907       C  0.86297310  0.72894561  0.65243370    -0.08700
C3908       C  0.85570919  0.74388631  0.62587463     0.30100
F3909       F  0.85032390  0.72845767  0.60044900    -0.19300
H3910       H  0.84699865  0.78620949  0.60524268     0.18500
H3911       H  0.87225091  0.73400789  0.69939247     0.18500
F3912       F  0.86877938  0.79137180  0.70430327    -0.19200
C3913       C  0.91385893  0.84413674  0.56272822    -0.20700
C3914       C  0.93630840  0.82307247  0.56797119    -0.08700
C3915       C  0.93609130  0.80667612  0.59459817     0.30100
C3916       C  0.91435553  0.81247260  0.61626392    -0.20700
C3917       C  0.89208383  0.83399347  0.61114470    -0.08700
C3918       C  0.89172949  0.84927541  0.58380771     0.30100
F3919       F  0.86998785  0.86934253  0.57740090    -0.19300
H3920       H  0.91343160  0.85664733  0.54210576     0.18500
H3921       H  0.91553358  0.80085241  0.63734352     0.18500
F3922       F  0.95777461  0.78637610  0.60032355    -0.19200
C3923       C  0.83303218  0.93230075  0.62012417    -0.20700
C3924       C  0.82066325  0.90391826  0.61757712    -0.08700
C3925       C  0.80155567  0.89766637  0.59351172     0.30100
C3926       C  0.79600775  0.91943289  0.57177417    -0.20700
C3927       C  0.81001591  0.94714611  0.57363336    -0.08700
C3928       C  0.82799975  0.95364651  0.59828150     0.30100
F3929       F  0.84157282  0.98040339  0.60065122    -0.19300
H3930       H  0.84773477  0.93752295  0.63851537     0.18500
H3931       H  0.78239395  0.91405183  0.55261775     0.18500
F3932       F  0.79019396  0.87005149  0.58976810    -0.19200
C3933       C  0.92266556  0.89656308  0.67081981    -0.20700
C3934       C  0.89555042  0.89845893  0.68602581    -0.08700
C3935       C  0.89158815  0.92087981  0.70768215     0.30100
C3936       C  0.91419879  0.94171978  0.71284026    -0.20700
C3937       C  0.94046767  0.94070315  0.69600846    -0.08700
C3938       C  0.94470323  0.91756061  0.67540526     0.30100
F3939       F  0.96996086  0.91575244  0.65897064    -0.19300
H3940       H  0.92637063  0.87933650  0.65430043     0.18500
H3941       H  0.91046487  0.95968906  0.72846911     0.18500
F3942       F  0.86536757  0.92395060  0.72225166    -0.19200
C3943       C  0.66438285  0.76411228  0.62205759    -0.20700
C3944       C  0.65316028  0.77949065  0.64690999    -0.08700
C3945       C  0.64353591  0.76334429  0.67176761     0.30100
C3946       C  0.64483967  0.73230250  0.67163464    -0.20700
C3947       C  0.65669257  0.71680660  0.64723804    -0.08700
C3948       C  0.66642442  0.73294238  0.62229330     0.30100
F3949       F  0.67829699  0.71857763  0.59846423    -0.19300
H3950       H  0.67204399  0.77629893  0.60277193     0.18500
H3951       H  0.63582897  0.72038492  0.69032131     0.18500
F3952       F  0.63200533  0.77761578  0.69583213    -0.19200
C3953       C  0.76836366  0.83266888  0.65020420    -0.20700
C3954       C  0.78196079  0.86029707  0.65445984    -0.08700
C3955       C  0.76414113  0.88580360  0.65850058     0.30100
C3956       C  0.73318173  0.88362170  0.65732078    -0.20700
C3957       C  0.71967197  0.85601706  0.65232584    -0.08700
C3958       C  0.73749931  0.83047260  0.64914491     0.30100
F3959       F  0.72510716  0.80351756  0.64401307    -0.19300
H3960       H  0.78174430  0.81278757  0.64710469     0.18500
H3961       H  0.71971891  0.90341474  0.66055275     0.18500
F3962       F  0.77656998  0.91259419  0.66430543    -0.19200
C3963       C  0.61603489  0.83304516  0.57756170    -0.20700
C3964       C  0.61445712  0.81869458  0.60519179    -0.08700
C3965       C  0.59122278  0.79865279  0.61063101     0.30100
C3966       C  0.56913329  0.79434335  0.58903717    -0.20700
C3967       C  0.56966572  0.81058283  0.56236280    -0.08700
C3968       C  0.59374713  0.82933660  0.55643473     0.30100
F3969       F  0.59510835  0.84504856  0.53065728    -0.19300
H3970       H  0.63377100  0.84856256  0.57301177     0.18500
H3971       H  0.55050698  0.78010055  0.59404192     0.18500
F3972       F  0.58828960  0.78546213  0.63761458    -0.19200
C3973       C  0.66191881  0.92154071  0.61221229    -0.20700
C3974       C  0.67825453  0.89485303  0.61208693    -0.08700
C3975       C  0.70048745  0.89076789  0.59034808     0.30100
C3976       C  0.70564464  0.91288031  0.56889934    -0.20700
C3977       C  0.68811158  0.93886223  0.56824542    -0.08700
C3978       C  0.66652956  0.94318394  0.59049726     0.30100
F3979       F  0.64965720  0.96832576  0.59117592    -0.19300
H3980       H  0.64485487  0.92533458  0.62882224     0.18500
H3981       H  0.72226989  0.90902284  0.55188469     0.18500
F3982       F  0.71586918  0.86479186  0.58856621    -0.19200
C3983       C  0.61271206  0.91044538  0.69976206    -0.20700
C3984       C  0.60582329  0.88798786  0.67908255    -0.08700
C3985       C  0.57775914  0.88808308  0.66542034     0.30100
C3986       C  0.55760919  0.91107363  0.67108090    -0.20700
C3987       C  0.56481656  0.93414470  0.69081347    -0.08700
C3988       C  0.59225747  0.93334152  0.70577324     0.30100
F3989       F  0.60015250  0.95578188  0.72433693    -0.19300
H3990       H  0.63443309  0.91106513  0.71012556     0.18500
H3991       H  0.53645544  0.91118640  0.65954374     0.18500
F3992       F  0.57003867  0.86621003  0.64608175    -0.19200
C3993       C  0.67102069  0.85487391  0.73634858    -0.20700
C3994       C  0.64523249  0.84919648  0.71986788    -0.08700
C3995       C  0.61858902  0.84300126  0.73488892     0.30100
C3996       C  0.61787607  0.84287736  0.76604865    -0.20700
C3997       C  0.64369316  0.84882603  0.78249709    -0.08700
C3998       C  0.67029425  0.85483397  0.76742648     0.30100
F3999       F  0.69535062  0.86162665  0.78276218    -0.19300
H4000       H  0.69165822  0.85984563  0.72507281     0.18500
H4001       H  0.59729367  0.83782054  0.77737194     0.18500
F4002       F  0.59353388  0.83637623  0.71947286    -0.19200
C4003       C  0.61339061  0.82646281  0.92499994    -0.20700
C4004       C  0.60783914  0.81645403  0.89597563    -0.08700
C4005       C  0.58130441  0.80124388  0.88987759     0.30100
C4006       C  0.56029178  0.79703190  0.91251980    -0.20700
C4007       C  0.56515557  0.80891808  0.94100653    -0.08700
C4008       C  0.59218753  0.82297307  0.94728430     0.30100
F4009       F  0.59749532  0.83455944  0.97467945    -0.19300
H4010       H  0.63349738  0.83864186  0.92994940     0.18500
H4011       H  0.53932771  0.78658016  0.90724530     0.18500
F4012       F  0.57437250  0.79308368  0.86165260    -0.19200
C4013       C  0.58615457  0.93199254  0.79716553    -0.20700
C4014       C  0.55865723  0.93138234  0.81177861    -0.08700
C4015       C  0.55169025  0.90708637  0.83002928     0.30100
C4016       C  0.57249164  0.88450170  0.83478977    -0.20700
C4017       C  0.60075857  0.88592363  0.82185117    -0.08700
C4018       C  0.60733330  0.90957557  0.80242854     0.30100
F4019       F  0.63491218  0.91248546  0.79071108    -0.19300
H4020       H  0.59203840  0.95092366  0.78357196     0.18500
H4021       H  0.56701651  0.86650582  0.84980910     0.18500
F4022       F  0.52514833  0.90589130  0.84429992    -0.19200
C4023       C  0.65513174  0.91963667  0.89241988    -0.20700
C4024       C  0.67054123  0.89240025  0.89288273    -0.08700
C4025       C  0.69227476  0.88750074  0.91495176     0.30100
C4026       C  0.69862119  0.90975179  0.93582114    -0.20700
C4027       C  0.68265335  0.93668973  0.93570124    -0.08700
C4028       C  0.66092815  0.94152835  0.91369860     0.30100
F4029       F  0.64554997  0.96757823  0.91254544    -0.19300
H4030       H  0.63837409  0.92390233  0.87557409     0.18500
H4031       H  0.71516690  0.90547374  0.95285721     0.18500
F4032       F  0.70631060  0.86081178  0.91730339    -0.19200
C4033       C  0.65970785  0.61683571  0.76704075    -0.20700
C4034       C  0.65557684  0.64353280  0.78284850    -0.08700
C4035       C  0.65339464  0.67032142  0.76698223     0.30100
C4036       C  0.65485752  0.67036876  0.73602930    -0.20700
C4037       C  0.65814271  0.64384387  0.72001599    -0.08700
C4038       C  0.66124093  0.61694374  0.73584263     0.30100
F4039       F  0.66673466  0.59101053  0.72130243    -0.19300
H4040       H  0.66256573  0.59603988  0.77887689     0.18500
H4041       H  0.65337561  0.69135760  0.72464950     0.18500
F4042       F  0.64961576  0.69661989  0.78130742    -0.19200
C4043       C  0.67185303  0.73236214  0.87101990    -0.20700
C4044       C  0.65155041  0.71565743  0.85435541    -0.08700
C4045       C  0.62911780  0.73032838  0.83824206     0.30100
C4046       C  0.62775308  0.76142059  0.83802769    -0.20700
C4047       C  0.64763869  0.77812664  0.85522433    -0.08700
C4048       C  0.66953044  0.76338865  0.87202301     0.30100
F4049       F  0.68828487  0.77891108  0.88974443    -0.19300
H4050       H  0.68896762  0.72128392  0.88391408     0.18500
H4051       H  0.61111207  0.77249712  0.82450328     0.18500
F4052       F  0.60868611  0.71459055  0.82266786    -0.19200
C4053       C  0.59406759  0.60916191  0.80561013    -0.20700
C4054       C  0.61851525  0.60213108  0.82386105    -0.08700
C4055       C  0.62064919  0.57355934  0.83636091     0.30100
C4056       C  0.59796798  0.55302354  0.83210763    -0.20700
C4057       C  0.57285983  0.56045578  0.81513390    -0.08700
C4058       C  0.57127231  0.58844402  0.80130842     0.30100
F4059       F  0.54650435  0.59666429  0.78608396    -0.19300
H4060       H  0.59172528  0.63126915  0.79631811     0.18500
H4061       H  0.59956040  0.53152181  0.84289164     0.18500
F4062       F  0.64422641  0.56584903  0.85364309    -0.19200
C4063       C  0.67980587  0.61349296  0.92514430    -0.20700
C4064       C  0.68937854  0.60852291  0.89588123    -0.08700
C4065       C  0.70563764  0.58251067  0.88921473     0.30100
C4066       C  0.71108678  0.56127696  0.91148908    -0.20700
C4067       C  0.69970151  0.56551411  0.94028550    -0.08700
C4068       C  0.68480611  0.59220082  0.94716742     0.30100
F4069       F  0.67397549  0.59709957  0.97497900    -0.19300
H4070       H  0.66706922  0.63330286  0.93057881     0.18500
H4071       H  0.72220227  0.54062045  0.90572551     0.18500
F4072       F  0.71375695  0.57628890  0.86080079    -0.19200
C4073       C  0.61913806  0.69607904  0.91473443    -0.20700
C4074       C  0.61335313  0.67483239  0.89247756    -0.08700
C4075       C  0.58518030  0.66169812  0.89118937     0.30100
C4076       C  0.56365724  0.66883522  0.91237452    -0.20700
C4077       C  0.56958674  0.68947567  0.93503750    -0.08700
C4078       C  0.59731153  0.70362494  0.93574266     0.30100
F4079       F  0.60401839  0.72302632  0.95790733    -0.19300
H4080       H  0.64092615  0.70585041  0.91671502     0.18500
H4081       H  0.54239481  0.65773492  0.91143277     0.18500
F4082       F  0.57851972  0.64162107  0.86963553    -0.19200
C4083       C  0.83744885  0.65572755  0.77273070    -0.20700
C4084       C  0.86357503  0.65923928  0.78931801    -0.08700
C4085       C  0.89063328  0.66361314  0.77434746     0.30100
C4086       C  0.89145488  0.66343872  0.74318515    -0.20700
C4087       C  0.86531980  0.65924050  0.72667627    -0.08700
C4088       C  0.83823652  0.65569451  0.74169909     0.30100
F4089       F  0.81262143  0.65126495  0.72639930    -0.19300
H4090       H  0.81641095  0.65240368  0.78386480     0.18500
H4091       H  0.91239678  0.66691985  0.73191871     0.18500
F4092       F  0.91604807  0.66869238  0.78976313    -0.19200
C4093       C  0.74009758  0.66878753  0.87426964    -0.20700
C4094       C  0.72668368  0.64828341  0.85509493    -0.08700
C4095       C  0.74435238  0.63103981  0.83584547     0.30100
C4096       C  0.77531633  0.63302541  0.83720767    -0.20700
C4097       C  0.78871165  0.65308279  0.85690053    -0.08700
C4098       C  0.77095771  0.67164529  0.87474652     0.30100
F4099       F  0.78357615  0.69210602  0.89297543    -0.19300
H4100       H  0.72663490  0.68265721  0.88871189     0.18500
H4101       H  0.78884885  0.61916697  0.82278247     0.18500
F4102       F  0.73164254  0.61247904  0.81572854    -0.19200
C4103       C  0.80672830  0.61886078  0.91809050    -0.20700
C4104       C  0.82872776  0.61390755  0.89637211    -0.08700
C4105       C  0.84343226  0.58626700  0.89559997     0.30100
C4106       C  0.83762595  0.56484016  0.91718308    -0.20700
C4107       C  0.81659076  0.57018417  0.93961853    -0.08700
C4108       C  0.80029735  0.59695877  0.93931716     0.30100
F4109       F  0.77976199  0.60278783  0.96069370    -0.19300
H4110       H  0.79563248  0.64016227  0.91972718     0.18500
H4111       H  0.85003424  0.54411168  0.91668054     0.18500
F4112       F  0.86397901  0.58015532  0.87431510    -0.19200
C4113       C  0.91959751  0.57656759  0.80340223    -0.20700
C4114       C  0.94576698  0.57526231  0.82037916    -0.08700
C4115       C  0.95102413  0.59730927  0.84192443     0.30100
C4116       C  0.92997997  0.61967122  0.84700061    -0.20700
C4117       C  0.90305192  0.62020265  0.83119775    -0.08700
C4118       C  0.89807469  0.59847113  0.80911114     0.30100
F4119       F  0.87171014  0.59697125  0.79456160    -0.19300
H4120       H  0.91501012  0.55953669  0.78696956     0.18500
H4121       H  0.93440419  0.63623204  0.86396595     0.18500
F4122       F  0.97639518  0.59704687  0.85832061    -0.19200
C4123       C  0.91600939  0.68275481  0.95208912    -0.20700
C4124       C  0.94017639  0.70078096  0.94470783    -0.08700
C4125       C  0.94023544  0.71568559  0.91718347     0.30100
C4126       C  0.91738706  0.71049112  0.89646140    -0.20700
C4127       C  0.89437299  0.69059963  0.90324391    -0.08700
C4128       C  0.89329129  0.67776440  0.93168716     0.30100
F4129       F  0.87096971  0.65909495  0.93923169    -0.19300
H4130       H  0.91543840  0.67133424  0.97332864     0.18500
H4131       H  0.91871276  0.72037479  0.87451119     0.18500
F4132       F  0.96356466  0.73291035  0.90932658    -0.19200
C4133       C  0.87969500  0.85563947  0.74211228    -0.20700
C4134       C  0.85350985  0.86021968  0.72569046    -0.08700
C4135       C  0.82648717  0.86423853  0.74083811     0.30100
C4136       C  0.82587290  0.86458964  0.77190866    -0.20700
C4137       C  0.85208748  0.86081781  0.78837898    -0.08700
C4138       C  0.87901156  0.85572154  0.77330497     0.30100
F4139       F  0.90437807  0.84998872  0.78867120    -0.19300
H4140       H  0.90055899  0.85169333  0.73075080     0.18500
H4141       H  0.80489069  0.86821988  0.78319345     0.18500
F4142       F  0.80077253  0.86868166  0.72559668    -0.19200
C4143       C  0.75861838  0.88614809  0.85141721    -0.20700
C4144       C  0.77633086  0.86083278  0.85652066    -0.08700
C4145       C  0.76262571  0.83302518  0.85954109     0.30100
C4146       C  0.73185118  0.83062146  0.85769900    -0.20700
C4147       C  0.71399188  0.85586921  0.85362610    -0.08700
C4148       C  0.72761396  0.88372122  0.84983204     0.30100
F4149       F  0.71105694  0.90832892  0.84381571    -0.19300
H4150       H  0.76881769  0.90763085  0.84813926     0.18500
H4151       H  0.72193786  0.80896630  0.86003398     0.18500
F4152       F  0.77894622  0.80813869  0.86501532    -0.19200
C4153       C  0.85385601  0.77581336  0.83483866    -0.20700
C4154       C  0.84859599  0.79123683  0.86147966    -0.08700
C4155       C  0.84525725  0.77517028  0.88814507     0.30100
C4156       C  0.84832830  0.74419556  0.88813696    -0.20700
C4157       C  0.85439833  0.72887938  0.86154464    -0.08700
C4158       C  0.85679555  0.74491651  0.83480459     0.30100
F4159       F  0.86280049  0.73079835  0.80872601    -0.19300
H4160       H  0.85651313  0.78782575  0.81410877     0.18500
H4161       H  0.84548710  0.73210635  0.90878498     0.18500
F4162       F  0.83854387  0.78933878  0.91401722    -0.19200
C4163       C  0.81987855  0.95523265  0.91302166    -0.20700
C4164       C  0.80439096  0.94815534  0.93909397    -0.08700
C4165       C  0.79178912  0.91978102  0.94199500     0.30100
C4166       C  0.79659494  0.89817605  0.91978187    -0.20700
C4167       C  0.81388625  0.90487629  0.89463090    -0.08700
C4168       C  0.82450364  0.93390369  0.89093682     0.30100
F4169       F  0.84084732  0.94116986  0.86664548    -0.19300
H4170       H  0.82970399  0.97701209  0.91044027     0.18500
H4171       H  0.78858066  0.87578044  0.92313616     0.18500
F4172       F  0.77725075  0.91222008  0.96731492    -0.19200
C4173       C  0.88541956  0.84575363  0.92995424    -0.20700
C4174       C  0.88585805  0.83230551  0.90177126    -0.08700
C4175       C  0.90875295  0.81188237  0.89485639     0.30100
C4176       C  0.93075865  0.80525968  0.91595719    -0.20700
C4177       C  0.93074023  0.81961609  0.94368152    -0.08700
C4178       C  0.90775197  0.83968872  0.95066963     0.30100
F4179       F  0.90722097  0.85382606  0.97741562    -0.19300
H4180       H  0.86808324  0.86159112  0.93565852     0.18500
H4181       H  0.94879452  0.79037022  0.91000316     0.18500
F4182       F  0.91113715  0.79999722  0.86715523    -0.19200
C4183       C  0.88649674  0.92223424  0.80955042    -0.20700
C4184       C  0.89122953  0.89940561  0.83045885    -0.08700
C4185       C  0.91872423  0.89759288  0.84523021     0.30100
C4186       C  0.94038633  0.91899718  0.84044093    -0.20700
C4187       C  0.93544130  0.94238706  0.82041928    -0.08700
C4188       C  0.90857095  0.94358979  0.80441939     0.30100
F4189       F  0.90296735  0.96638487  0.78542242    -0.19300
H4190       H  0.86534573  0.92422035  0.79818472     0.18500
H4191       H  0.96114217  0.91739898  0.85260949     0.18500
F4192       F  0.92462079  0.87518192  0.86461383    -0.19200
loop_ 
_geom_bond_atom_site_label_1 
_geom_bond_atom_site_label_2 
_geom_bond_distance 
_geom_bond_site_symmetry_2 
_ccdc_geom_bond_type 
C1            H2   1.111       .  S
C1            C7   1.540       .  S
C1            C6   1.541       .  S
C1            C5   1.540       .  S
C3            H4   1.111       .  S
C3            C9   1.536       .  S
C3            C8   1.534       .  S
C3           C10   1.537       .  S
C5            C8   1.372       .  D
C5          C469   1.482       .  S
C6            C9   1.373       .  D
C6          C476   1.483       .  S
C7           C10   1.374       .  D
C7          C486   1.482       .  S
C8          C516   1.482       .  S
C9          C499   1.485       .  S
C10         C506   1.489       .  S
C11          H12   1.111       .  S
C11          C17   1.535       .  S
C11          C16   1.535       .  S
C11          C15   1.532       .  S
C13          H14   1.111       .  S
C13          C19   1.539       .  S
C13          C18   1.537       .  S
C13          C20   1.540       .  S
C15          C18   1.369       .  D
C15         C436   1.484       .  S
C16          C19   1.373       .  D
C16         C459   1.482       .  S
C17          C20   1.375       .  D
C17         C449   1.487       .  S
C18         C429   1.473       .  S
C19         C489   1.481       .  S
C20         C416   1.480       .  S
C21          H22   1.112       .  S
C21          C27   1.538       .  S
C21          C26   1.537       .  S
C21          C25   1.540       .  S
C23          H24   1.112       .  S
C23          C29   1.534       .  S
C23          C28   1.533       .  S
C23          C30   1.537       .  S
C25          C28   1.371       .  D
C25         C366   1.473       .  S
C26          C29   1.370       .  D
C26         C426   1.472       .  S
C27          C30   1.370       .  D
C27         C376   1.478       .  S
C28         C386   1.482       .  S
C29         C396   1.482       .  S
C30         C406   1.482       .  S
C31          H32   1.111       .  S
C31          C37   1.535       .  S
C31          C36   1.529       .  S
C31          C35   1.537       .  S
C33          H34   1.111       .  S
C33          C39   1.539       .  S
C33          C38   1.541       .  S
C33          C40   1.541       .  S
C35          C38   1.377       .  D
C35         C356   1.487       .  S
C36          C39   1.364       .  D
C36         C336   1.472       .  S
C37          C40   1.376       .  D
C37         C349   1.487       .  S
C38         C479   1.486       .  S
C39         C379   1.479       .  S
C40         C329   1.477       .  S
C41          H42   1.111       .  S
C41          C47   1.544       .  S
C41          C46   1.543       .  S
C41          C45   1.540       .  S
C43          H44   1.111       .  S
C43          C49   1.531       .  S
C43          C48   1.531       .  S
C43          C50   1.534       .  S
C45          C48   1.370       .  D
C45         C326   1.478       .  S
C46          C49   1.373       .  D
C46         C289   1.480       .  S
C47          C50   1.375       .  D
C47         C276   1.487       .  S
C48         C316   1.484       .  S
C49         C306   1.487       .  S
C50         C296   1.480       .  S
C51          H52   1.111       .  S
C51          C57   1.533       .  S
C51          C56   1.534       .  S
C51          C55   1.534       .  S
C53          H54   1.111       .  S
C53          C59   1.544       .  S
C53          C58   1.538       .  S
C53          C60   1.540       .  S
C55          C58   1.372       .  D
C55         C256   1.480       .  S
C56          C59   1.375       .  D
C56         C249   1.490       .  S
C57          C60   1.371       .  D
C57         C266   1.483       .  S
C58         C286   1.480       .  S
C59         C236   1.481       .  S
C60         C466   1.480       .  S
C61          H62   1.108       .  S
C61          C67   1.538       .  S
C61          C66   1.542       .  S
C61          C65   1.535       .  S
C63          H64   1.111       .  S
C63          C69   1.540       .  S
C63          C68   1.537       .  S
C63          C70   1.541       .  S
C65          C68   1.371       .  D
C65         C219   1.482       .  S
C66          C69   1.377       .  D
C66         C206   1.486       .  S
C67          C70   1.375       .  D
C67         C226   1.498       .  S
C68         C196   1.475       .  S
C69         C279   1.495       .  S
C70         C369   1.477       .  S
C71          H72   1.111       .  S
C71          C77   1.539       .  S
C71          C76   1.536       .  S
C71          C75   1.538       .  S
C73          H74   1.111       .  S
C73          C79   1.532       .  S
C73          C78   1.535       .  S
C73          C80   1.533       .  S
C75          C78   1.373       .  D
C75         C419   1.479       .  S
C76          C79   1.372       .  D
C76         C199   1.474       .  S
C77          C80   1.374       .  D
C77         C239   1.479       .  S
C78         C186   1.484       .  S
C79         C166   1.487       .  S
C80         C176   1.482       .  S
O81         Cu89   1.980       .  S
O81          C91   1.274       .  A
O82       Cu3233   1.983       .  S
O82          C92   1.275       .  A
O83       Cu2185   1.994       .  S
O83          C93   1.276       .  A
O84       Cu1137   1.986       .  S
O84          C94   1.275       .  A
O85       Cu1138   2.032       .  S
O85          C94   1.280       .  A
O86       Cu2186   2.026       .  S
O86          C93   1.278       .  A
O87       Cu3234   2.034       .  S
O87          C92   1.280       .  A
O88         Cu90   2.034       .  S
O88          C91   1.280       .  A
Cu89       O3226   1.982   1_445  S
Cu89       O2179   1.995   1_455  S
Cu89       O1132   1.988   1_545  S
Cu89        Cu90   2.374       .  S
Cu90       O1133   2.030   1_545  S
Cu90       O2182   2.022   1_455  S
Cu90       O3231   2.036   1_445  S
C91         C229   1.471       .  S
C92         C269   1.471       .  S
C93         C189   1.471       .  S
C94         C319   1.472       .  S
O95       Cu2199   2.000       .  S
O95         C105   1.277       .  A
O96       Cu1151   1.986       .  S
O96         C106   1.275       .  A
O97        Cu103   1.990       .  S
O97         C107   1.276       .  A
O98       Cu3247   1.989       .  S
O98         C108   1.276       .  A
O99       Cu3248   2.021       .  S
O99         C108   1.278       .  A
O100       Cu104   2.026   1_455  S
O100        C107   1.279       .  A
O101      Cu1152   2.033       .  S
O101        C106   1.280       .  A
O102      Cu2200   2.020       .  S
O102        C105   1.278       .  A
Cu103      O2191   2.001   1_455  S
Cu103      O1144   1.986   1_545  S
Cu103      O3242   1.987   1_445  S
Cu103      Cu104   2.374   1_455  S
Cu104      O3243   2.022   1_545  S
Cu104      O1149   2.033   1_645  S
Cu104      O2198   2.021       .  S
C105        C446   1.475       .  S
C106        C346   1.471       .  S
C107        C389   1.471       .  S
C108        C519   1.470       .  S
O109      Cu1689   2.010       .  S
O109        C119   1.278       .  A
O110       Cu117   2.025   1_544  S
O110        C120   1.278       .  A
O111      Cu1165   2.030   1_554  S
O111        C121   1.280       .  A
O112       Cu641   2.037   1_545  S
O112        C122   1.281       .  A
O113       Cu642   1.988       .  S
O113        C122   1.275       .  A
O114      Cu1166   1.993       .  S
O114        C121   1.276       .  A
O115       Cu118   2.001       .  S
O115        C120   1.276       .  A
O116      Cu1690   2.009       .  S
O116        C119   1.278       .  A
Cu117      O1681   2.015       .  S
Cu117      O1159   2.029   1_556  S
Cu117       O636   2.033   1_565  S
Cu117      Cu118   2.374   1_566  S
Cu118       O637   1.985   1_554  S
Cu118      O1162   1.993   1_545  S
Cu118      O1688   2.014   1_544  S
C119        C359   1.475       .  S
C120        C216   1.468       .  S
C121        C309   1.478       .  S
C122        C399   1.475       .  S
O123       Cu655   1.981       .  S
O123        C133   1.275       .  A
O124      Cu2227   1.986       .  S
O124        C134   1.276       .  A
O125      Cu2751   1.986       .  S
O125        C135   1.275       .  A
O126       Cu131   1.994       .  S
O126        C136   1.276       .  A
O127       Cu132   2.019       .  S
O127        C136   1.278       .  A
O128      Cu2752   2.036       .  S
O128        C135   1.280       .  A
O129      Cu2228   2.031       .  S
O129        C134   1.280       .  A
O130       Cu656   2.029       .  S
O130        C133   1.280       .  A
Cu131       O647   1.985   1_554  S
Cu131      O2220   1.981   1_455  S
Cu131      O2745   1.983   1_454  S
Cu131      Cu132   2.374       .  S
Cu132      O2748   2.029   1_454  S
Cu132      O2225   2.028   1_455  S
Cu132       O654   2.031   1_554  S
C133        C409   1.471       .  S
C134        C179   1.473       .  S
C135        C456   1.473       .  S
C136        C209   1.468       .  S
O137       Cu669   2.026       .  S
O137        C147   1.279       .  A
O138      Cu1193   2.024       .  S
O138        C148   1.278       .  A
O139       Cu145   2.031       .  S
O139        C149   1.280       .  A
O140      Cu1717   2.040       .  S
O140        C150   1.280       .  A
O141      Cu1718   1.991       .  S
O141        C150   1.275       .  A
O142       Cu146   1.991       .  S
O142        C149   1.276       .  A
O143      Cu1194   1.987       .  S
O143        C148   1.275       .  A
O144       Cu670   1.991       .  S
O144        C147   1.276       .  A
Cu145       O661   2.026   1_554  S
Cu145      O1186   2.029   1_545  S
Cu145      O1712   2.031   1_544  S
Cu145      Cu146   2.375       .  S
Cu146      O1713   1.990   1_544  S
Cu146      O1191   1.988   1_545  S
Cu146       O668   1.985   1_554  S
C147        C439   1.473       .  S
C148        C259   1.466       .  S
C149        C169   1.474       .  S
C150        C496   1.474       .  S
O151       Cu683   2.018   1_455  S
O151        C161   1.277       .  A
O152      Cu2255   2.023       .  S
O152        C162   1.279       .  A
O153      Cu2779   2.036       .  S
O153        C163   1.281       .  A
O154       Cu159   2.023   1_455  S
O154        C164   1.279       .  A
O155       Cu160   1.989       .  S
O155        C164   1.276       .  A
O156      Cu2780   1.989       .  S
O156        C163   1.275       .  A
O157      Cu2256   1.998       .  S
O157        C162   1.277       .  A
O158       Cu684   1.993       .  S
O158        C161   1.276       .  A
Cu159       O675   2.020   1_654  S
Cu159      O2248   2.021       .  S
Cu159      O2773   2.028   1_554  S
Cu159      Cu160   2.377   1_655  S
Cu160      O2776   1.995   1_454  S
Cu160      O2253   1.993   1_455  S
Cu160       O682   1.995   1_554  S
C161        C339   1.463       .  S
C162        C246   1.473       .  S
C163        C509   1.473       .  S
C164        C299   1.471       .  S
C165        C166   1.401       .  A
C165        C170   1.393       .  A
C165        H172   1.084       .  S
C166        C167   1.411       .  A
C167        C168   1.403       .  A
C167        F174   1.357       .  S
C168        C169   1.403       .  A
C168        H173   1.083       .  S
C169        C170   1.405       .  A
C170        F171   1.357       .  S
C175        C176   1.401       .  A
C175        C180   1.389       .  A
C175        H182   1.084       .  S
C176        C177   1.408       .  A
C177        C178   1.407       .  A
C177        F184   1.357       .  S
C178        C179   1.405       .  A
C178        H183   1.083       .  S
C179        C180   1.404       .  A
C180        F181   1.358       .  S
C185        C186   1.401       .  A
C185        C190   1.392       .  A
C185        H192   1.084       .  S
C186        C187   1.410       .  A
C187        C188   1.405       .  A
C187        F194   1.357       .  S
C188        C189   1.405       .  A
C188        H193   1.083       .  S
C189        C190   1.403       .  A
C190        F191   1.358       .  S
C195        C196   1.403       .  A
C195        C200   1.397       .  A
C195        H202   1.084       .  S
C196        C197   1.404       .  A
C197        C198   1.393       .  A
C197        F204   1.353       .  S
C198        C199   1.401       .  A
C198        H203   1.083       .  S
C199        C200   1.403       .  A
C200        F201   1.358       .  S
C205        C206   1.407       .  A
C205        C210   1.402       .  A
C205        H212   1.083       .  S
C206        C207   1.406       .  A
C207        C208   1.392       .  A
C207        F214   1.355       .  S
C208        C209   1.399       .  A
C208        H213   1.084       .  S
C209        C210   1.405       .  A
C210        F211   1.357       .  S
C215        C216   1.400       .  A
C215        C220   1.398       .  A
C215        H222   1.084       .  S
C216        C217   1.404       .  A
C217        C218   1.402       .  A
C217        F224   1.357       .  S
C218        C219   1.403       .  A
C218        H223   1.083       .  S
C219        C220   1.406       .  A
C220        F221   1.357       .  S
C225        C226   1.411       .  A
C225        C230   1.402       .  A
C225        H232   1.081       .  S
C226        C227   1.410       .  A
C227        C228   1.391       .  A
C227        F234   1.352       .  S
C228        C229   1.398       .  A
C228        H233   1.084       .  S
C229        C230   1.402       .  A
C230        F231   1.355       .  S
C235        C236   1.405       .  A
C235        C240   1.401       .  A
C235        H242   1.083       .  S
C236        C237   1.404       .  A
C237        C238   1.395       .  A
C237        F244   1.357       .  S
C238        C239   1.401       .  A
C238        H243   1.084       .  S
C239        C240   1.406       .  A
C240        F241   1.357       .  S
C245        C246   1.400       .  A
C245        C250   1.393       .  A
C245        H252   1.084       .  S
C246        C247   1.406       .  A
C247        C248   1.404       .  A
C247        F254   1.357       .  S
C248        C249   1.408       .  A
C248        H253   1.082       .  S
C249        C250   1.407       .  A
C250        F251   1.357       .  S
C255        C256   1.401       .  A
C255        C260   1.391       .  A
C255        H262   1.084       .  S
C256        C257   1.409       .  A
C257        C258   1.404       .  A
C257        F264   1.357       .  S
C258        C259   1.403       .  A
C258        H263   1.083       .  S
C259        C260   1.402       .  A
C260        F261   1.357       .  S
C265        C266   1.401       .  A
C265        C270   1.390       .  A
C265        H272   1.084       .  S
C266        C267   1.409       .  A
C267        C268   1.406       .  A
C267        F274   1.357       .  S
C268        C269   1.404       .  A
C268        H273   1.082       .  S
C269        C270   1.403       .  A
C270        F271   1.358       .  S
C275        C276   1.406       .  A
C275        C280   1.404       .  A
C275        H282   1.083       .  S
C276        C277   1.403       .  A
C277        C278   1.394       .  A
C277        F284   1.358       .  S
C278        C279   1.402       .  A
C278        H283   1.075       .  S
C279        C280   1.410       .  A
C280        F281   1.357       .  S
C285        C286   1.402       .  A
C285        C290   1.395       .  A
C285        H292   1.084       .  S
C286        C287   1.406       .  A
C287        C288   1.399       .  A
C287        F294   1.357       .  S
C288        C289   1.404       .  A
C288        H293   1.083       .  S
C289        C290   1.404       .  A
C290        F291   1.357       .  S
C295        C296   1.401       .  A
C295        C300   1.389       .  A
C295        H302   1.084       .  S
C296        C297   1.408       .  A
C297        C298   1.404       .  A
C297        F304   1.357       .  S
C298        C299   1.405       .  A
C298        H303   1.083       .  S
C299        C300   1.404       .  A
C300        F301   1.357       .  S
C305        C306   1.402       .  A
C305        C310   1.394       .  A
C305        H312   1.084       .  S
C306        C307   1.409       .  A
C307        C308   1.404       .  A
C307        F314   1.356       .  S
C308        C309   1.405       .  A
C308        H313   1.083       .  S
C309        C310   1.406       .  A
C310        F311   1.358       .  S
C315        C316   1.407       .  A
C315        C320   1.402       .  A
C315        H322   1.083       .  S
C316        C317   1.404       .  A
C317        C318   1.394       .  A
C317        F324   1.358       .  S
C318        C319   1.403       .  A
C318        H323   1.084       .  S
C319        C320   1.405       .  A
C320        F321   1.356       .  S
C325        C326   1.400       .  A
C325        C330   1.395       .  A
C325        H332   1.084       .  S
C326        C327   1.407       .  A
C327        C328   1.399       .  A
C327        F334   1.357       .  S
C328        C329   1.402       .  A
C328        H333   1.083       .  S
C329        C330   1.405       .  A
C330        F331   1.357       .  S
C335        C336   1.399       .  A
C335        C340   1.396       .  A
C335        H342   1.084       .  S
C336        C337   1.404       .  A
C337        C338   1.399       .  A
C337        F344   1.357       .  S
C338        C339   1.401       .  A
C338        H343   1.083       .  S
C339        C340   1.403       .  A
C340        F341   1.357       .  S
C345        C346   1.403       .  A
C345        C350   1.404       .  A
C345        H352   1.082       .  S
C346        C347   1.403       .  A
C347        C348   1.393       .  A
C347        F354   1.358       .  S
C348        C349   1.403       .  A
C348        H353   1.082       .  S
C349        C350   1.410       .  A
C350        F351   1.356       .  S
C355        C356   1.404       .  A
C355        C360   1.396       .  A
C355        H362   1.084       .  S
C356        C357   1.408       .  A
C357        C358   1.400       .  A
C357        F364   1.357       .  S
C358        C359   1.404       .  A
C358        H363   1.083       .  S
C359        C360   1.405       .  A
C360        F361   1.358       .  S
C365        C366   1.403       .  A
C365        C370   1.400       .  A
C365        H372   1.083       .  S
C366        C367   1.400       .  A
C367        C368   1.392       .  A
C367        F374   1.355       .  S
C368        C369   1.399       .  A
C368        H373   1.077       .  S
C369        C370   1.406       .  A
C370        F371   1.357       .  S
C375        C376   1.401       .  A
C375        C380   1.397       .  A
C375        H382   1.081       .  S
C376        C377   1.404       .  A
C377        C378   1.400       .  A
C377        F384   1.357       .  S
C378        C379   1.403       .  A
C378        H383   1.083       .  S
C379        C380   1.402       .  A
C380        F381   1.355       .  S
C385        C386   1.406       .  A
C385        C390   1.404       .  A
C385        H392   1.083       .  S
C386        C387   1.404       .  A
C387        C388   1.394       .  A
C387        F394   1.357       .  S
C388        C389   1.401       .  A
C388        H393   1.084       .  S
C389        C390   1.405       .  A
C390        F391   1.357       .  S
C395        C396   1.400       .  A
C395        C400   1.394       .  A
C395        H402   1.084       .  S
C396        C397   1.408       .  A
C397        C398   1.404       .  A
C397        F404   1.355       .  S
C398        C399   1.404       .  A
C398        H403   1.083       .  S
C399        C400   1.406       .  A
C400        F401   1.358       .  S
C405        C406   1.407       .  A
C405        C410   1.402       .  A
C405        H412   1.082       .  S
C406        C407   1.403       .  A
C407        C408   1.392       .  A
C407        F414   1.357       .  S
C408        C409   1.402       .  A
C408        H413   1.084       .  S
C409        C410   1.405       .  A
C410        F411   1.357       .  S
C415        C416   1.401       .  A
C415        C420   1.394       .  A
C415        H422   1.083       .  S
C416        C417   1.407       .  A
C417        C418   1.399       .  A
C417        F424   1.357       .  S
C418        C419   1.403       .  A
C418        H423   1.083       .  S
C419        C420   1.405       .  A
C420        F421   1.357       .  S
C425        C426   1.400       .  A
C425        C430   1.396       .  A
C425        H432   1.082       .  S
C426        C427   1.404       .  A
C427        C428   1.399       .  A
C427        F434   1.358       .  S
C428        C429   1.401       .  A
C428        H433   1.083       .  S
C429        C430   1.403       .  A
C430        F431   1.358       .  S
C435        C436   1.407       .  A
C435        C440   1.403       .  A
C435        H442   1.080       .  S
C436        C437   1.404       .  A
C437        C438   1.393       .  A
C437        F444   1.357       .  S
C438        C439   1.402       .  A
C438        H443   1.084       .  S
C439        C440   1.406       .  A
C440        F441   1.357       .  S
C445        C446   1.404       .  A
C445        C450   1.402       .  A
C445        H452   1.083       .  S
C446        C447   1.405       .  A
C447        C448   1.395       .  A
C447        F454   1.358       .  S
C448        C449   1.403       .  A
C448        H453   1.084       .  S
C449        C450   1.409       .  A
C450        F451   1.357       .  S
C455        C456   1.402       .  A
C455        C460   1.392       .  A
C455        H462   1.084       .  S
C456        C457   1.406       .  A
C457        C458   1.406       .  A
C457        F464   1.357       .  S
C458        C459   1.407       .  A
C458        H463   1.083       .  S
C459        C460   1.403       .  A
C460        F461   1.358       .  S
C465        C466   1.403       .  A
C465        C470   1.401       .  A
C465        H472   1.083       .  S
C466        C467   1.405       .  A
C467        C468   1.397       .  A
C467        F474   1.358       .  S
C468        C469   1.402       .  A
C468        H473   1.084       .  S
C469        C470   1.407       .  A
C470        F471   1.357       .  S
C475        C476   1.405       .  A
C475        C480   1.403       .  A
C475        H482   1.083       .  S
C476        C477   1.404       .  A
C477        C478   1.391       .  A
C477        F484   1.357       .  S
C478        C479   1.399       .  A
C478        H483   1.077       .  S
C479        C480   1.409       .  A
C480        F481   1.357       .  S
C485        C486   1.402       .  A
C485        C490   1.396       .  A
C485        H492   1.084       .  S
C486        C487   1.407       .  A
C487        C488   1.399       .  A
C487        F494   1.357       .  S
C488        C489   1.403       .  A
C488        H493   1.083       .  S
C489        C490   1.405       .  A
C490        F491   1.357       .  S
C495        C496   1.401       .  A
C495        C500   1.393       .  A
C495        H502   1.084       .  S
C496        C497   1.407       .  A
C497        C498   1.408       .  A
C497        F504   1.357       .  S
C498        C499   1.407       .  A
C498        H503   1.083       .  S
C499        C500   1.404       .  A
C500        F501   1.358       .  S
C505        C506   1.402       .  A
C505        C510   1.395       .  A
C505        H512   1.084       .  S
C506        C507   1.411       .  A
C507        C508   1.402       .  A
C507        F514   1.356       .  S
C508        C509   1.402       .  A
C508        H513   1.083       .  S
C509        C510   1.405       .  A
C510        F511   1.358       .  S
C515        C516   1.406       .  A
C515        C520   1.404       .  A
C515        H522   1.083       .  S
C516        C517   1.405       .  A
C517        C518   1.389       .  A
C517        F524   1.357       .  S
C518        C519   1.400       .  A
C518        H523   1.084       .  S
C519        C520   1.406       .  A
C520        F521   1.356       .  S
C525        H526   1.111       .  S
C525        C531   1.538       .  S
C525        C530   1.538       .  S
C525        C529   1.540       .  S
C527        H528   1.111       .  S
C527        C533   1.537       .  S
C527        C532   1.531       .  S
C527        C534   1.535       .  S
C529        C532   1.372       .  D
C529        C993   1.481       .  S
C530        C533   1.373       .  D
C530       C1000   1.480       .  S
C531        C534   1.374       .  D
C531       C1010   1.479       .  S
C532       C1040   1.480       .  S
C533       C1023   1.485       .  S
C534       C1030   1.487       .  S
C535        H536   1.111       .  S
C535        C541   1.535       .  S
C535        C540   1.535       .  S
C535        C539   1.531       .  S
C537        H538   1.111       .  S
C537        C543   1.537       .  S
C537        C542   1.535       .  S
C537        C544   1.540       .  S
C539        C542   1.369       .  D
C539        C960   1.484       .  S
C540        C543   1.373       .  D
C540        C983   1.482       .  S
C541        C544   1.376       .  D
C541        C973   1.488       .  S
C542        C953   1.470       .  S
C543       C1013   1.479       .  S
C544        C940   1.482       .  S
C545        H546   1.111       .  S
C545        C551   1.538       .  S
C545        C550   1.534       .  S
C545        C549   1.543       .  S
C547        H548   1.112       .  S
C547        C553   1.531       .  S
C547        C552   1.533       .  S
C547        C554   1.537       .  S
C549        C552   1.374       .  D
C549        C890   1.478       .  S
C550        C553   1.368       .  D
C550        C950   1.471       .  S
C551        C554   1.370       .  D
C551        C900   1.478       .  S
C552        C910   1.483       .  S
C553        C920   1.477       .  S
C554        C930   1.484       .  S
C555        H556   1.112       .  S
C555        C561   1.533       .  S
C555        C560   1.528       .  S
C555        C559   1.534       .  S
C557        H558   1.111       .  S
C557        C563   1.538       .  S
C557        C562   1.541       .  S
C557        C564   1.538       .  S
C559        C562   1.375       .  D
C559        C880   1.487       .  S
C560        C563   1.367       .  D
C560        C860   1.473       .  S
C561        C564   1.373       .  D
C561        C873   1.480       .  S
C562       C1003   1.481       .  S
C563        C903   1.476       .  S
C564        C853   1.478       .  S
C565        H566   1.111       .  S
C565        C571   1.539       .  S
C565        C570   1.543       .  S
C565        C569   1.540       .  S
C567        H568   1.111       .  S
C567        C573   1.532       .  S
C567        C572   1.533       .  S
C567        C574   1.535       .  S
C569        C572   1.373       .  D
C569        C850   1.478       .  S
C570        C573   1.375       .  D
C570        C813   1.483       .  S
C571        C574   1.371       .  D
C571        C800   1.481       .  S
C572        C840   1.487       .  S
C573        C830   1.484       .  S
C574        C820   1.480       .  S
C575        H576   1.111       .  S
C575        C581   1.534       .  S
C575        C580   1.533       .  S
C575        C579   1.537       .  S
C577        H578   1.111       .  S
C577        C583   1.540       .  S
C577        C582   1.540       .  S
C577        C584   1.539       .  S
C579        C582   1.375       .  D
C579        C780   1.486       .  S
C580        C583   1.373       .  D
C580        C773   1.487       .  S
C581        C584   1.372       .  D
C581        C790   1.482       .  S
C582        C810   1.483       .  S
C583        C760   1.480       .  S
C584        C990   1.480       .  S
C585        H586   1.107       .  S
C585        C591   1.539       .  S
C585        C590   1.541       .  S
C585        C589   1.536       .  S
C587        H588   1.111       .  S
C587        C593   1.538       .  S
C587        C592   1.536       .  S
C587        C594   1.545       .  S
C589        C592   1.370       .  D
C589        C743   1.479       .  S
C590        C593   1.373       .  D
C590        C730   1.488       .  S
C591        C594   1.380       .  D
C591        C750   1.502       .  S
C592        C720   1.479       .  S
C593        C803   1.488       .  S
C594        C893   1.483       .  S
C595        H596   1.111       .  S
C595        C601   1.540       .  S
C595        C600   1.538       .  S
C595        C599   1.541       .  S
C597        H598   1.111       .  S
C597        C603   1.532       .  S
C597        C602   1.533       .  S
C597        C604   1.533       .  S
C599        C602   1.374       .  D
C599        C943   1.482       .  S
C600        C603   1.372       .  D
C600        C723   1.477       .  S
C601        C604   1.373       .  D
C601        C763   1.479       .  S
C602        C710   1.484       .  S
C603        C690   1.486       .  S
C604        C700   1.482       .  S
O605       Cu613   1.986       .  S
O605        C615   1.275       .  A
O606      Cu3757   1.978       .  S
O606        C616   1.274       .  A
O607      Cu2709   1.997       .  S
O607        C617   1.277       .  A
O608      Cu1661   1.992       .  S
O608        C618   1.276       .  A
O609      Cu1662   2.036       .  S
O609        C618   1.281       .  A
O610      Cu2710   2.023       .  S
O610        C617   1.278       .  A
O611      Cu3758   2.036       .  S
O611        C616   1.280       .  A
O612       Cu614   2.040       .  S
O612        C615   1.281       .  A
Cu613      O3750   1.984   1_445  S
Cu613      O2703   1.997   1_455  S
Cu613      O1656   1.990   1_545  S
Cu613      Cu614   2.373       .  S
Cu614      O1657   2.035   1_545  S
Cu614      O2706   2.027   1_455  S
Cu614      O3755   2.039   1_445  S
C615        C753   1.477       .  S
C616        C793   1.470       .  S
C617        C713   1.471       .  S
C618        C843   1.476       .  S
O619      Cu2723   1.999       .  S
O619        C629   1.277       .  A
O620      Cu1675   1.986       .  S
O620        C630   1.275       .  A
O621       Cu627   1.995       .  S
O621        C631   1.276       .  A
O622      Cu3771   1.990       .  S
O622        C632   1.276       .  A
O623      Cu3772   2.022       .  S
O623        C632   1.278       .  A
O624       Cu628   2.028       .  S
O624        C631   1.279       .  A
O625      Cu1676   2.030       .  S
O625        C630   1.279       .  A
O626      Cu2724   2.022       .  S
O626        C629   1.279       .  A
Cu627      O2715   2.000   1_455  S
Cu627      O1668   1.984   1_545  S
Cu627      O3766   1.997   1_445  S
Cu627      Cu628   2.374       .  S
Cu628      O3767   2.029   1_445  S
Cu628      O1673   2.029   1_545  S
Cu628      O2722   2.018   1_455  S
C629        C970   1.476       .  S
C630        C870   1.468       .  S
C631        C913   1.472       .  S
C632       C1043   1.469       .  S
O633      Cu1165   2.015       .  S
O633        C643   1.278       .  A
O634       Cu641   2.022   1_545  S
O634        C644   1.277       .  A
O635      Cu1689   2.029       .  S
O635        C645   1.280       .  A
O636        C646   1.280       .  A
O637        C646   1.275       .  A
O638      Cu1690   1.996       .  S
O638        C645   1.277       .  A
O639       Cu642   1.997       .  S
O639        C644   1.276       .  A
O640      Cu1166   2.012   1_556  S
O640        C643   1.279       .  A
Cu641      O1157   2.012       .  S
Cu641      O1683   2.031       .  S
Cu641      Cu642   2.374   1_565  S
Cu642      O1686   1.994   1_545  S
Cu642      O1164   2.013   1_545  S
C643        C883   1.477       .  S
C644        C740   1.466       .  S
C645        C833   1.477       .  S
C646        C923   1.470       .  S
O647        C657   1.275       .  A
O648      Cu2751   1.984       .  S
O648        C658   1.276       .  A
O649      Cu2227   1.986   1_556  S
O649        C659   1.276       .  A
O650       Cu655   1.991       .  S
O650        C660   1.276       .  A
O651       Cu656   2.019       .  S
O651        C660   1.279       .  A
O652      Cu2228   2.032   1_556  S
O652        C659   1.280       .  A
O653      Cu2752   2.030       .  S
O653        C658   1.279       .  A
O654        C657   1.280       .  A
Cu655      O2744   1.979   1_455  S
Cu655      O2221   1.983   1_455  S
Cu655      Cu656   2.374       .  S
Cu656      O2224   2.032   1_455  S
Cu656      O2749   2.025   1_455  S
C657        C933   1.473       .  S
C658        C703   1.472       .  S
C659        C980   1.472       .  S
C660        C733   1.468       .  S
O661        C671   1.279       .  A
O662      Cu1717   2.029       .  S
O662        C672   1.279       .  A
O663       Cu669   2.031       .  S
O663        C673   1.280       .  A
O664      Cu1193   2.037   1_556  S
O664        C674   1.280       .  A
O665      Cu1194   1.993   1_556  S
O665        C674   1.276       .  A
O666       Cu670   1.992       .  S
O666        C673   1.275       .  A
O667      Cu1718   1.989       .  S
O667        C672   1.276       .  A
O668        C671   1.276       .  A
Cu669      O1710   2.029   1_545  S
Cu669      O1188   2.033   1_545  S
Cu669      Cu670   2.375       .  S
Cu670      O1189   1.988   1_545  S
Cu670      O1715   1.990   1_545  S
C671        C963   1.472       .  S
C672        C783   1.470       .  S
C673        C693   1.474       .  S
C674       C1020   1.475       .  S
O675        C685   1.278       .  A
O676      Cu2779   2.023       .  S
O676        C686   1.279       .  A
O677      Cu2255   2.031   1_556  S
O677        C687   1.280       .  A
O678       Cu683   2.028   1_455  S
O678        C688   1.280       .  A
O679       Cu684   1.984       .  S
O679        C688   1.275       .  A
O680      Cu2256   1.989   1_556  S
O680        C687   1.275       .  A
O681      Cu2780   1.994       .  S
O681        C686   1.277       .  A
O682        C685   1.276       .  A
Cu683      O2772   2.023       .  S
Cu683      O2249   2.033       .  S
Cu683      Cu684   2.377   1_655  S
Cu684      O2252   1.982   1_455  S
Cu684      O2777   1.996   1_455  S
C685        C863   1.466       .  S
C686        C770   1.471       .  S
C687       C1033   1.471       .  S
C688        C823   1.471       .  S
C689        C690   1.402       .  A
C689        C694   1.395       .  A
C689        H696   1.084       .  S
C690        C691   1.409       .  A
C691        C692   1.402       .  A
C691        F698   1.356       .  S
C692        C693   1.403       .  A
C692        H697   1.083       .  S
C693        C694   1.406       .  A
C694        F695   1.357       .  S
C699        C700   1.401       .  A
C699        C704   1.389       .  A
C699        H706   1.084       .  S
C700        C701   1.409       .  A
C701        C702   1.407       .  A
C701        F708   1.357       .  S
C702        C703   1.405       .  A
C702        H707   1.083       .  S
C703        C704   1.403       .  A
C704        F705   1.358       .  S
C709        C710   1.402       .  A
C709        C714   1.393       .  A
C709        H716   1.084       .  S
C710        C711   1.409       .  A
C711        C712   1.404       .  A
C711        F718   1.357       .  S
C712        C713   1.404       .  A
C712        H717   1.083       .  S
C713        C714   1.403       .  A
C714        F715   1.358       .  S
C719        C720   1.403       .  A
C719        C724   1.399       .  A
C719        H726   1.084       .  S
C720        C721   1.405       .  A
C721        C722   1.395       .  A
C721        F728   1.354       .  S
C722        C723   1.401       .  A
C722        H727   1.083       .  S
C723        C724   1.404       .  A
C724        F725   1.358       .  S
C729        C730   1.408       .  A
C729        C734   1.399       .  A
C729        H736   1.082       .  S
C730        C731   1.407       .  A
C731        C732   1.394       .  A
C731        F738   1.356       .  S
C732        C733   1.401       .  A
C732        H737   1.084       .  S
C733        C734   1.403       .  A
C734        F735   1.357       .  S
C739        C740   1.400       .  A
C739        C744   1.397       .  A
C739        H746   1.084       .  S
C740        C741   1.404       .  A
C741        C742   1.401       .  A
C741        F748   1.357       .  S
C742        C743   1.402       .  A
C742        H747   1.083       .  S
C743        C744   1.405       .  A
C744        F745   1.357       .  S
C749        C750   1.411       .  A
C749        C754   1.406       .  A
C749        H756   1.082       .  S
C750        C751   1.411       .  A
C751        C752   1.392       .  A
C751        F758   1.352       .  S
C752        C753   1.398       .  A
C752        H757   1.084       .  S
C753        C754   1.404       .  A
C754        F755   1.354       .  S
C759        C760   1.404       .  A
C759        C764   1.400       .  A
C759        H766   1.083       .  S
C760        C761   1.404       .  A
C761        C762   1.395       .  A
C761        F768   1.357       .  S
C762        C763   1.401       .  A
C762        H767   1.084       .  S
C763        C764   1.406       .  A
C764        F765   1.357       .  S
C769        C770   1.400       .  A
C769        C774   1.392       .  A
C769        H776   1.084       .  S
C770        C771   1.406       .  A
C771        C772   1.404       .  A
C771        F778   1.357       .  S
C772        C773   1.408       .  A
C772        H777   1.083       .  S
C773        C774   1.406       .  A
C774        F775   1.357       .  S
C779        C780   1.402       .  A
C779        C784   1.391       .  A
C779        H786   1.084       .  S
C780        C781   1.411       .  A
C781        C782   1.406       .  A
C781        F788   1.356       .  S
C782        C783   1.404       .  A
C782        H787   1.083       .  S
C783        C784   1.402       .  A
C784        F785   1.357       .  S
C789        C790   1.401       .  A
C789        C794   1.390       .  A
C789        H796   1.084       .  S
C790        C791   1.409       .  A
C791        C792   1.406       .  A
C791        F798   1.357       .  S
C792        C793   1.404       .  A
C792        H797   1.082       .  S
C793        C794   1.403       .  A
C794        F795   1.358       .  S
C799        C800   1.405       .  A
C799        C804   1.405       .  A
C799        H806   1.083       .  S
C800        C801   1.401       .  A
C801        C802   1.395       .  A
C801        F808   1.358       .  S
C802        C803   1.401       .  A
C802        H807   1.074       .  S
C803        C804   1.407       .  A
C804        F805   1.357       .  S
C809        C810   1.403       .  A
C809        C814   1.395       .  A
C809        H816   1.084       .  S
C810        C811   1.406       .  A
C811        C812   1.400       .  A
C811        F818   1.357       .  S
C812        C813   1.406       .  A
C812        H817   1.083       .  S
C813        C814   1.404       .  A
C814        F815   1.357       .  S
C819        C820   1.401       .  A
C819        C824   1.391       .  A
C819        H826   1.084       .  S
C820        C821   1.408       .  A
C821        C822   1.403       .  A
C821        F828   1.356       .  S
C822        C823   1.403       .  A
C822        H827   1.082       .  S
C823        C824   1.405       .  A
C824        F825   1.358       .  S
C829        C830   1.402       .  A
C829        C834   1.394       .  A
C829        H836   1.084       .  S
C830        C831   1.408       .  A
C831        C832   1.404       .  A
C831        F838   1.357       .  S
C832        C833   1.405       .  A
C832        H837   1.083       .  S
C833        C834   1.406       .  A
C834        F835   1.358       .  S
C839        C840   1.407       .  A
C839        C844   1.403       .  A
C839        H846   1.083       .  S
C840        C841   1.404       .  A
C841        C842   1.395       .  A
C841        F848   1.358       .  S
C842        C843   1.403       .  A
C842        H847   1.083       .  S
C843        C844   1.405       .  A
C844        F845   1.357       .  S
C849        C850   1.401       .  A
C849        C854   1.394       .  A
C849        H856   1.084       .  S
C850        C851   1.406       .  A
C851        C852   1.398       .  A
C851        F858   1.357       .  S
C852        C853   1.403       .  A
C852        H857   1.083       .  S
C853        C854   1.405       .  A
C854        F855   1.357       .  S
C859        C860   1.400       .  A
C859        C864   1.393       .  A
C859        H866   1.084       .  S
C860        C861   1.405       .  A
C861        C862   1.402       .  A
C861        F868   1.356       .  S
C862        C863   1.402       .  A
C862        H867   1.083       .  S
C863        C864   1.403       .  A
C864        F865   1.357       .  S
C869        C870   1.403       .  A
C869        C874   1.402       .  A
C869        H876   1.083       .  S
C870        C871   1.404       .  A
C871        C872   1.393       .  A
C871        F878   1.358       .  S
C872        C873   1.401       .  A
C872        H877   1.084       .  S
C873        C874   1.407       .  A
C874        F875   1.357       .  S
C879        C880   1.404       .  A
C879        C884   1.397       .  A
C879        H886   1.084       .  S
C880        C881   1.408       .  A
C881        C882   1.401       .  A
C881        F888   1.357       .  S
C882        C883   1.404       .  A
C882        H887   1.083       .  S
C883        C884   1.405       .  A
C884        F885   1.358       .  S
C889        C890   1.405       .  A
C889        C894   1.400       .  A
C889        H896   1.083       .  S
C890        C891   1.401       .  A
C891        C892   1.388       .  A
C891        F898   1.356       .  S
C892        C893   1.399       .  A
C892        H897   1.071       .  S
C893        C894   1.408       .  A
C894        F895   1.357       .  S
C899        C900   1.402       .  A
C899        C904   1.398       .  A
C899        H906   1.082       .  S
C900        C901   1.404       .  A
C901        C902   1.400       .  A
C901        F908   1.357       .  S
C902        C903   1.403       .  A
C902        H907   1.083       .  S
C903        C904   1.402       .  A
C904        F905   1.356       .  S
C909        C910   1.405       .  A
C909        C914   1.404       .  A
C909        H916   1.083       .  S
C910        C911   1.404       .  A
C911        C912   1.394       .  A
C911        F918   1.356       .  S
C912        C913   1.401       .  A
C912        H917   1.084       .  S
C913        C914   1.406       .  A
C914        F915   1.356       .  S
C919        C920   1.400       .  A
C919        C924   1.394       .  A
C919        H926   1.084       .  S
C920        C921   1.407       .  A
C921        C922   1.402       .  A
C921        F928   1.355       .  S
C922        C923   1.402       .  A
C922        H927   1.083       .  S
C923        C924   1.405       .  A
C924        F925   1.358       .  S
C929        C930   1.406       .  A
C929        C934   1.402       .  A
C929        H936   1.081       .  S
C930        C931   1.404       .  A
C931        C932   1.394       .  A
C931        F938   1.357       .  S
C932        C933   1.403       .  A
C932        H937   1.084       .  S
C933        C934   1.405       .  A
C934        F935   1.357       .  S
C939        C940   1.401       .  A
C939        C944   1.394       .  A
C939        H946   1.083       .  S
C940        C941   1.407       .  A
C941        C942   1.400       .  A
C941        F948   1.357       .  S
C942        C943   1.404       .  A
C942        H947   1.083       .  S
C943        C944   1.405       .  A
C944        F945   1.357       .  S
C949        C950   1.400       .  A
C949        C954   1.396       .  A
C949        H956   1.082       .  S
C950        C951   1.404       .  A
C951        C952   1.398       .  A
C951        F958   1.357       .  S
C952        C953   1.401       .  A
C952        H957   1.083       .  S
C953        C954   1.402       .  A
C954        F955   1.357       .  S
C959        C960   1.407       .  A
C959        C964   1.402       .  A
C959        H966   1.080       .  S
C960        C961   1.404       .  A
C961        C962   1.391       .  A
C961        F968   1.357       .  S
C962        C963   1.402       .  A
C962        H967   1.084       .  S
C963        C964   1.405       .  A
C964        F965   1.357       .  S
C969        C970   1.404       .  A
C969        C974   1.402       .  A
C969        H976   1.083       .  S
C970        C971   1.405       .  A
C971        C972   1.395       .  A
C971        F978   1.358       .  S
C972        C973   1.403       .  A
C972        H977   1.084       .  S
C973        C974   1.410       .  A
C974        F975   1.357       .  S
C979        C980   1.402       .  A
C979        C984   1.392       .  A
C979        H986   1.084       .  S
C980        C981   1.405       .  A
C981        C982   1.404       .  A
C981        F988   1.356       .  S
C982        C983   1.406       .  A
C982        H987   1.083       .  S
C983        C984   1.404       .  A
C984        F985   1.358       .  S
C989        C990   1.404       .  A
C989        C994   1.400       .  A
C989        H996   1.083       .  S
C990        C991   1.404       .  A
C991        C992   1.394       .  A
C991        F998   1.358       .  S
C992        C993   1.401       .  A
C992        H997   1.084       .  S
C993        C994   1.407       .  A
C994        F995   1.357       .  S
C999       C1000   1.404       .  A
C999       C1004   1.401       .  A
C999       H1006   1.083       .  S
C1000      C1001   1.405       .  A
C1001      C1002   1.392       .  A
C1001      F1008   1.357       .  S
C1002      C1003   1.399       .  A
C1002      H1007   1.080       .  S
C1003      C1004   1.408       .  A
C1004      F1005   1.357       .  S
C1009      C1010   1.401       .  A
C1009      C1014   1.394       .  A
C1009      H1016   1.084       .  S
C1010      C1011   1.407       .  A
C1011      C1012   1.399       .  A
C1011      F1018   1.357       .  S
C1012      C1013   1.404       .  A
C1012      H1017   1.083       .  S
C1013      C1014   1.405       .  A
C1014      F1015   1.357       .  S
C1019      C1020   1.401       .  A
C1019      C1024   1.393       .  A
C1019      H1026   1.084       .  S
C1020      C1021   1.406       .  A
C1021      C1022   1.408       .  A
C1021      F1028   1.357       .  S
C1022      C1023   1.407       .  A
C1022      H1027   1.083       .  S
C1023      C1024   1.404       .  A
C1024      F1025   1.358       .  S
C1029      C1030   1.402       .  A
C1029      C1034   1.395       .  A
C1029      H1036   1.084       .  S
C1030      C1031   1.411       .  A
C1031      C1032   1.401       .  A
C1031      F1038   1.356       .  S
C1032      C1033   1.401       .  A
C1032      H1037   1.082       .  S
C1033      C1034   1.404       .  A
C1034      F1035   1.358       .  S
C1039      C1040   1.406       .  A
C1039      C1044   1.403       .  A
C1039      H1046   1.083       .  S
C1040      C1041   1.404       .  A
C1041      C1042   1.390       .  A
C1041      F1048   1.357       .  S
C1042      C1043   1.400       .  A
C1042      H1047   1.084       .  S
C1043      C1044   1.405       .  A
C1044      F1045   1.356       .  S
C1049      H1050   1.111       .  S
C1049      C1055   1.538       .  S
C1049      C1054   1.540       .  S
C1049      C1053   1.540       .  S
C1051      H1052   1.112       .  S
C1051      C1057   1.536       .  S
C1051      C1056   1.534       .  S
C1051      C1058   1.536       .  S
C1053      C1056   1.373       .  D
C1053      C1517   1.478       .  S
C1054      C1057   1.372       .  D
C1054      C1524   1.483       .  S
C1055      C1058   1.373       .  D
C1055      C1534   1.484       .  S
C1056      C1564   1.486       .  S
C1057      C1547   1.482       .  S
C1058      C1554   1.483       .  S
C1059      H1060   1.111       .  S
C1059      C1065   1.534       .  S
C1059      C1064   1.535       .  S
C1059      C1063   1.532       .  S
C1061      H1062   1.111       .  S
C1061      C1067   1.539       .  S
C1061      C1066   1.537       .  S
C1061      C1068   1.541       .  S
C1063      C1066   1.369       .  D
C1063      C1484   1.485       .  S
C1064      C1067   1.374       .  D
C1064      C1507   1.482       .  S
C1065      C1068   1.376       .  D
C1065      C1497   1.489       .  S
C1066      C1477   1.473       .  S
C1067      C1537   1.483       .  S
C1068      C1464   1.479       .  S
C1069      H1070   1.112       .  S
C1069      C1075   1.540       .  S
C1069      C1074   1.538       .  S
C1069      C1073   1.542       .  S
C1071      H1072   1.112       .  S
C1071      C1077   1.533       .  S
C1071      C1076   1.532       .  S
C1071      C1078   1.537       .  S
C1073      C1076   1.371       .  D
C1073      C1414   1.472       .  S
C1074      C1077   1.370       .  D
C1074      C1474   1.474       .  S
C1075      C1078   1.371       .  D
C1075      C1424   1.481       .  S
C1076      C1434   1.483       .  S
C1077      C1444   1.480       .  S
C1078      C1454   1.484       .  S
C1079      H1080   1.112       .  S
C1079      C1085   1.533       .  S
C1079      C1084   1.528       .  S
C1079      C1083   1.535       .  S
C1081      H1082   1.111       .  S
C1081      C1087   1.542       .  S
C1081      C1086   1.543       .  S
C1081      C1088   1.540       .  S
C1083      C1086   1.377       .  D
C1083      C1404   1.488       .  S
C1084      C1087   1.366       .  D
C1084      C1384   1.472       .  S
C1085      C1088   1.374       .  D
C1085      C1397   1.484       .  S
C1086      C1527   1.487       .  S
C1087      C1427   1.481       .  S
C1088      C1377   1.476       .  S
C1089      H1090   1.111       .  S
C1089      C1095   1.544       .  S
C1089      C1094   1.541       .  S
C1089      C1093   1.538       .  S
C1091      H1092   1.111       .  S
C1091      C1097   1.532       .  S
C1091      C1096   1.531       .  S
C1091      C1098   1.536       .  S
C1093      C1096   1.369       .  D
C1093      C1374   1.477       .  S
C1094      C1097   1.374       .  D
C1094      C1337   1.479       .  S
C1095      C1098   1.376       .  D
C1095      C1324   1.489       .  S
C1096      C1364   1.483       .  S
C1097      C1354   1.488       .  S
C1098      C1344   1.481       .  S
C1099      H1100   1.111       .  S
C1099      C1105   1.534       .  S
C1099      C1104   1.534       .  S
C1099      C1103   1.533       .  S
C1101      H1102   1.111       .  S
C1101      C1107   1.544       .  S
C1101      C1106   1.540       .  S
C1101      C1108   1.540       .  S
C1103      C1106   1.372       .  D
C1103      C1304   1.482       .  S
C1104      C1107   1.375       .  D
C1104      C1297   1.489       .  S
C1105      C1108   1.371       .  D
C1105      C1314   1.483       .  S
C1106      C1334   1.480       .  S
C1107      C1284   1.483       .  S
C1108      C1514   1.479       .  S
C1109      H1110   1.109       .  S
C1109      C1115   1.537       .  S
C1109      C1114   1.543       .  S
C1109      C1113   1.537       .  S
C1111      H1112   1.111       .  S
C1111      C1117   1.541       .  S
C1111      C1116   1.538       .  S
C1111      C1118   1.542       .  S
C1113      C1116   1.372       .  D
C1113      C1267   1.481       .  S
C1114      C1117   1.378       .  D
C1114      C1254   1.489       .  S
C1115      C1118   1.373       .  D
C1115      C1274   1.497       .  S
C1116      C1244   1.481       .  S
C1117      C1327   1.496       .  S
C1118      C1417   1.475       .  S
C1119      H1120   1.111       .  S
C1119      C1125   1.538       .  S
C1119      C1124   1.539       .  S
C1119      C1123   1.541       .  S
C1121      H1122   1.111       .  S
C1121      C1127   1.533       .  S
C1121      C1126   1.536       .  S
C1121      C1128   1.534       .  S
C1123      C1126   1.376       .  D
C1123      C1467   1.479       .  S
C1124      C1127   1.373       .  D
C1124      C1247   1.478       .  S
C1125      C1128   1.372       .  D
C1125      C1287   1.482       .  S
C1126      C1234   1.490       .  S
C1127      C1214   1.490       .  S
C1128      C1224   1.477       .  S
O1129     Cu1137   1.979       .  S
O1129      C1139   1.274       .  A
O1130     Cu2185   1.981   1_565  S
O1130      C1140   1.275       .  A
O1131     Cu3233   1.998       .  S
O1131      C1141   1.277       .  A
O1132      C1142   1.275       .  A
O1133      C1142   1.280       .  A
O1134     Cu3234   2.029       .  S
O1134      C1141   1.279       .  A
O1135     Cu2186   2.036   1_565  S
O1135      C1140   1.280       .  A
O1136     Cu1138   2.037       .  S
O1136      C1139   1.281       .  A
Cu1137     O2178   1.978   1_455  S
Cu1137     O3227   1.993   1_455  S
Cu1137    Cu1138   2.374       .  S
Cu1138     O3230   2.026   1_455  S
Cu1138     O2183   2.037   1_455  S
C1139      C1277   1.472       .  S
C1140      C1317   1.471       .  S
C1141      C1237   1.475       .  S
C1142      C1367   1.472       .  S
O1143     Cu3247   2.000       .  S
O1143      C1153   1.277       .  A
O1144      C1154   1.275       .  A
O1145     Cu1151   1.992       .  S
O1145      C1155   1.276       .  A
O1146     Cu2199   1.990   1_565  S
O1146      C1156   1.276       .  A
O1147     Cu2200   2.026   1_565  S
O1147      C1156   1.279       .  A
O1148     Cu1152   2.028       .  S
O1148      C1155   1.279       .  A
O1149      C1154   1.280       .  A
O1150     Cu3248   2.018       .  S
O1150      C1153   1.279       .  A
Cu1151     O3239   1.999   1_455  S
Cu1151     O2194   1.991   1_455  S
Cu1151    Cu1152   2.374       .  S
Cu1152     O2195   2.025   1_455  S
Cu1152     O3246   2.019   1_455  S
C1153      C1494   1.475       .  S
C1154      C1394   1.470       .  S
C1155      C1437   1.472       .  S
C1156      C1567   1.472       .  S
O1157      C1167   1.278       .  A
O1158     Cu1165   2.024   1_554  S
O1158      C1168   1.278       .  A
O1159      C1169   1.280       .  A
O1160     Cu1689   2.035       .  S
O1160      C1170   1.280       .  A
O1161     Cu1690   1.991       .  S
O1161      C1170   1.276       .  A
O1162      C1169   1.276       .  A
O1163     Cu1166   1.999       .  S
O1163      C1168   1.276       .  A
O1164      C1167   1.279       .  A
Cu1165     O1684   2.034       .  S
Cu1165    Cu1166   2.374   1_556  S
Cu1166     O1685   1.983   1_554  S
C1167      C1407   1.476       .  S
C1168      C1264   1.467       .  S
C1169      C1357   1.479       .  S
C1170      C1447   1.474       .  S
O1171     Cu1703   1.984       .  S
O1171      C1181   1.275       .  A
O1172     Cu3275   1.981       .  S
O1172      C1182   1.275       .  A
O1173     Cu3799   1.985       .  S
O1173      C1183   1.276       .  A
O1174     Cu1179   1.993       .  S
O1174      C1184   1.276       .  A
O1175     Cu1180   2.026       .  S
O1175      C1184   1.279       .  A
O1176     Cu3800   2.030       .  S
O1176      C1183   1.279       .  A
O1177     Cu3276   2.027       .  S
O1177      C1182   1.279       .  A
O1178     Cu1704   2.029       .  S
O1178      C1181   1.280       .  A
Cu1179     O1695   1.984   1_554  S
Cu1179     O3268   1.981   1_455  S
Cu1179     O3793   1.981   1_454  S
Cu1179    Cu1180   2.373       .  S
Cu1180     O3796   2.038   1_454  S
Cu1180     O3273   2.030   1_455  S
Cu1180     O1702   2.035   1_554  S
C1181      C1457   1.473       .  S
C1182      C1227   1.468       .  S
C1183      C1504   1.471       .  S
C1184      C1257   1.471       .  S
O1185     Cu1717   2.028       .  S
O1185      C1195   1.279       .  A
O1186      C1196   1.279       .  A
O1187     Cu1193   2.036       .  S
O1187      C1197   1.281       .  A
O1188      C1198   1.279       .  A
O1189      C1198   1.275       .  A
O1190     Cu1194   1.994       .  S
O1190      C1197   1.276       .  A
O1191      C1196   1.275       .  A
O1192     Cu1718   1.991       .  S
O1192      C1195   1.276       .  A
Cu1193     O1709   2.019   1_554  S
Cu1193    Cu1194   2.375       .  S
Cu1194     O1716   1.981   1_554  S
C1195      C1487   1.474       .  S
C1196      C1307   1.468       .  S
C1197      C1217   1.478       .  S
C1198      C1544   1.470       .  S
O1199     Cu1731   2.020   1_455  S
O1199      C1209   1.278       .  A
O1200     Cu3303   2.027       .  S
O1200      C1210   1.279       .  A
O1201     Cu3827   2.030       .  S
O1201      C1211   1.280       .  A
O1202     Cu1207   2.026   1_455  S
O1202      C1212   1.279       .  A
O1203     Cu1208   1.986       .  S
O1203      C1212   1.276       .  A
O1204     Cu3828   1.984       .  S
O1204      C1211   1.274       .  A
O1205     Cu3304   1.996       .  S
O1205      C1210   1.277       .  A
O1206     Cu1732   1.996       .  S
O1206      C1209   1.276       .  A
Cu1207     O1723   2.020   1_654  S
Cu1207     O3296   2.022       .  S
Cu1207     O3821   2.028   1_554  S
Cu1207    Cu1208   2.377   1_655  S
Cu1208     O3824   1.987   1_454  S
Cu1208     O3301   1.993   1_455  S
Cu1208     O1730   1.994   1_554  S
C1209      C1387   1.466       .  S
C1210      C1294   1.473       .  S
C1211      C1557   1.467       .  S
C1212      C1347   1.472       .  S
C1213      C1214   1.402       .  A
C1213      C1218   1.395       .  A
C1213      H1220   1.084       .  S
C1214      C1215   1.410       .  A
C1215      C1216   1.404       .  A
C1215      F1222   1.357       .  S
C1216      C1217   1.404       .  A
C1216      H1221   1.083       .  S
C1217      C1218   1.406       .  A
C1218      F1219   1.357       .  S
C1223      C1224   1.399       .  A
C1223      C1228   1.388       .  A
C1223      H1230   1.084       .  S
C1224      C1225   1.408       .  A
C1225      C1226   1.406       .  A
C1225      F1232   1.357       .  S
C1226      C1227   1.404       .  A
C1226      H1231   1.083       .  S
C1227      C1228   1.403       .  A
C1228      F1229   1.358       .  S
C1233      C1234   1.403       .  A
C1233      C1238   1.394       .  A
C1233      H1240   1.084       .  S
C1234      C1235   1.411       .  A
C1235      C1236   1.406       .  A
C1235      F1242   1.356       .  S
C1236      C1237   1.405       .  A
C1236      H1241   1.083       .  S
C1237      C1238   1.403       .  A
C1238      F1239   1.358       .  S
C1243      C1244   1.404       .  A
C1243      C1248   1.399       .  A
C1243      H1250   1.084       .  S
C1244      C1245   1.405       .  A
C1245      C1246   1.396       .  A
C1245      F1252   1.353       .  S
C1246      C1247   1.402       .  A
C1246      H1251   1.083       .  S
C1247      C1248   1.404       .  A
C1248      F1249   1.358       .  S
C1253      C1254   1.408       .  A
C1253      C1258   1.403       .  A
C1253      H1260   1.083       .  S
C1254      C1255   1.406       .  A
C1255      C1256   1.393       .  A
C1255      F1262   1.354       .  S
C1256      C1257   1.400       .  A
C1256      H1261   1.084       .  S
C1257      C1258   1.405       .  A
C1258      F1259   1.357       .  S
C1263      C1264   1.400       .  A
C1263      C1268   1.398       .  A
C1263      H1270   1.084       .  S
C1264      C1265   1.404       .  A
C1265      C1266   1.401       .  A
C1265      F1272   1.357       .  S
C1266      C1267   1.403       .  A
C1266      H1271   1.083       .  S
C1267      C1268   1.406       .  A
C1268      F1269   1.357       .  S
C1273      C1274   1.411       .  A
C1273      C1278   1.404       .  A
C1273      H1280   1.081       .  S
C1274      C1275   1.408       .  A
C1275      C1276   1.391       .  A
C1275      F1282   1.352       .  S
C1276      C1277   1.399       .  A
C1276      H1281   1.084       .  S
C1277      C1278   1.403       .  A
C1278      F1279   1.355       .  S
C1283      C1284   1.405       .  A
C1283      C1288   1.401       .  A
C1283      H1290   1.083       .  S
C1284      C1285   1.405       .  A
C1285      C1286   1.397       .  A
C1285      F1292   1.357       .  S
C1286      C1287   1.402       .  A
C1286      H1291   1.084       .  S
C1287      C1288   1.406       .  A
C1288      F1289   1.357       .  S
C1293      C1294   1.401       .  A
C1293      C1298   1.394       .  A
C1293      H1300   1.084       .  S
C1294      C1295   1.405       .  A
C1295      C1296   1.404       .  A
C1295      F1302   1.357       .  S
C1296      C1297   1.407       .  A
C1296      H1301   1.083       .  S
C1297      C1298   1.407       .  A
C1298      F1299   1.357       .  S
C1303      C1304   1.400       .  A
C1303      C1308   1.391       .  A
C1303      H1310   1.084       .  S
C1304      C1305   1.409       .  A
C1305      C1306   1.405       .  A
C1305      F1312   1.357       .  S
C1306      C1307   1.403       .  A
C1306      H1311   1.083       .  S
C1307      C1308   1.402       .  A
C1308      F1309   1.357       .  S
C1313      C1314   1.401       .  A
C1313      C1318   1.390       .  A
C1313      H1320   1.084       .  S
C1314      C1315   1.410       .  A
C1315      C1316   1.406       .  A
C1315      F1322   1.357       .  S
C1316      C1317   1.404       .  A
C1316      H1321   1.082       .  S
C1317      C1318   1.403       .  A
C1318      F1319   1.358       .  S
C1323      C1324   1.406       .  A
C1323      C1328   1.405       .  A
C1323      H1330   1.083       .  S
C1324      C1325   1.404       .  A
C1325      C1326   1.395       .  A
C1325      F1332   1.358       .  S
C1326      C1327   1.402       .  A
C1326      H1331   1.073       .  S
C1327      C1328   1.410       .  A
C1328      F1329   1.357       .  S
C1333      C1334   1.402       .  A
C1333      C1338   1.395       .  A
C1333      H1340   1.084       .  S
C1334      C1335   1.407       .  A
C1335      C1336   1.399       .  A
C1335      F1342   1.357       .  S
C1336      C1337   1.404       .  A
C1336      H1341   1.083       .  S
C1337      C1338   1.404       .  A
C1338      F1339   1.358       .  S
C1343      C1344   1.401       .  A
C1343      C1348   1.389       .  A
C1343      H1350   1.084       .  S
C1344      C1345   1.408       .  A
C1345      C1346   1.404       .  A
C1345      F1352   1.356       .  S
C1346      C1347   1.405       .  A
C1346      H1351   1.083       .  S
C1347      C1348   1.404       .  A
C1348      F1349   1.358       .  S
C1353      C1354   1.402       .  A
C1353      C1358   1.393       .  A
C1353      H1360   1.084       .  S
C1354      C1355   1.409       .  A
C1355      C1356   1.404       .  A
C1355      F1362   1.356       .  S
C1356      C1357   1.405       .  A
C1356      H1361   1.083       .  S
C1357      C1358   1.406       .  A
C1358      F1359   1.358       .  S
C1363      C1364   1.407       .  A
C1363      C1368   1.402       .  A
C1363      H1370   1.083       .  S
C1364      C1365   1.403       .  A
C1365      C1366   1.394       .  A
C1365      F1372   1.358       .  S
C1366      C1367   1.403       .  A
C1366      H1371   1.083       .  S
C1367      C1368   1.405       .  A
C1368      F1369   1.357       .  S
C1373      C1374   1.401       .  A
C1373      C1378   1.396       .  A
C1373      H1380   1.084       .  S
C1374      C1375   1.406       .  A
C1375      C1376   1.397       .  A
C1375      F1382   1.357       .  S
C1376      C1377   1.402       .  A
C1376      H1381   1.083       .  S
C1377      C1378   1.404       .  A
C1378      F1379   1.357       .  S
C1383      C1384   1.399       .  A
C1383      C1388   1.394       .  A
C1383      H1390   1.084       .  S
C1384      C1385   1.406       .  A
C1385      C1386   1.402       .  A
C1385      F1392   1.357       .  S
C1386      C1387   1.402       .  A
C1386      H1391   1.083       .  S
C1387      C1388   1.403       .  A
C1388      F1389   1.357       .  S
C1393      C1394   1.403       .  A
C1393      C1398   1.404       .  A
C1393      H1400   1.083       .  S
C1394      C1395   1.403       .  A
C1395      C1396   1.393       .  A
C1395      F1402   1.358       .  S
C1396      C1397   1.402       .  A
C1396      H1401   1.083       .  S
C1397      C1398   1.409       .  A
C1398      F1399   1.357       .  S
C1403      C1404   1.405       .  A
C1403      C1408   1.397       .  A
C1403      H1410   1.084       .  S
C1404      C1405   1.408       .  A
C1405      C1406   1.400       .  A
C1405      F1412   1.357       .  S
C1406      C1407   1.404       .  A
C1406      H1411   1.083       .  S
C1407      C1408   1.405       .  A
C1408      F1409   1.358       .  S
C1413      C1414   1.403       .  A
C1413      C1418   1.400       .  A
C1413      H1420   1.083       .  S
C1414      C1415   1.400       .  A
C1415      C1416   1.391       .  A
C1415      F1422   1.354       .  S
C1416      C1417   1.398       .  A
C1416      H1421   1.076       .  S
C1417      C1418   1.405       .  A
C1418      F1419   1.357       .  S
C1423      C1424   1.402       .  A
C1423      C1428   1.399       .  A
C1423      H1430   1.081       .  S
C1424      C1425   1.404       .  A
C1425      C1426   1.401       .  A
C1425      F1432   1.357       .  S
C1426      C1427   1.403       .  A
C1426      H1431   1.082       .  S
C1427      C1428   1.403       .  A
C1428      F1429   1.355       .  S
C1433      C1434   1.406       .  A
C1433      C1438   1.404       .  A
C1433      H1440   1.083       .  S
C1434      C1435   1.404       .  A
C1435      C1436   1.394       .  A
C1435      F1442   1.357       .  S
C1436      C1437   1.401       .  A
C1436      H1441   1.084       .  S
C1437      C1438   1.405       .  A
C1438      F1439   1.357       .  S
C1443      C1444   1.400       .  A
C1443      C1448   1.394       .  A
C1443      H1450   1.084       .  S
C1444      C1445   1.408       .  A
C1445      C1446   1.405       .  A
C1445      F1452   1.356       .  S
C1446      C1447   1.404       .  A
C1446      H1451   1.083       .  S
C1447      C1448   1.405       .  A
C1448      F1449   1.358       .  S
C1453      C1454   1.406       .  A
C1453      C1458   1.402       .  A
C1453      H1460   1.082       .  S
C1454      C1455   1.405       .  A
C1455      C1456   1.392       .  A
C1455      F1462   1.357       .  S
C1456      C1457   1.402       .  A
C1456      H1461   1.084       .  S
C1457      C1458   1.406       .  A
C1458      F1459   1.357       .  S
C1463      C1464   1.401       .  A
C1463      C1468   1.393       .  A
C1463      H1470   1.083       .  S
C1464      C1465   1.407       .  A
C1465      C1466   1.399       .  A
C1465      F1472   1.357       .  S
C1466      C1467   1.404       .  A
C1466      H1471   1.083       .  S
C1467      C1468   1.405       .  A
C1468      F1469   1.357       .  S
C1473      C1474   1.400       .  A
C1473      C1478   1.397       .  A
C1473      H1480   1.082       .  S
C1474      C1475   1.404       .  A
C1475      C1476   1.399       .  A
C1475      F1482   1.357       .  S
C1476      C1477   1.401       .  A
C1476      H1481   1.083       .  S
C1477      C1478   1.403       .  A
C1478      F1479   1.358       .  S
C1483      C1484   1.407       .  A
C1483      C1488   1.404       .  A
C1483      H1490   1.081       .  S
C1484      C1485   1.404       .  A
C1485      C1486   1.392       .  A
C1485      F1492   1.357       .  S
C1486      C1487   1.402       .  A
C1486      H1491   1.084       .  S
C1487      C1488   1.406       .  A
C1488      F1489   1.357       .  S
C1493      C1494   1.404       .  A
C1493      C1498   1.401       .  A
C1493      H1500   1.083       .  S
C1494      C1495   1.405       .  A
C1495      C1496   1.395       .  A
C1495      F1502   1.358       .  S
C1496      C1497   1.404       .  A
C1496      H1501   1.084       .  S
C1497      C1498   1.410       .  A
C1498      F1499   1.356       .  S
C1503      C1504   1.401       .  A
C1503      C1508   1.391       .  A
C1503      H1510   1.084       .  S
C1504      C1505   1.406       .  A
C1505      C1506   1.405       .  A
C1505      F1512   1.357       .  S
C1506      C1507   1.407       .  A
C1506      H1511   1.083       .  S
C1507      C1508   1.403       .  A
C1508      F1509   1.358       .  S
C1513      C1514   1.404       .  A
C1513      C1518   1.400       .  A
C1513      H1520   1.083       .  S
C1514      C1515   1.405       .  A
C1515      C1516   1.395       .  A
C1515      F1522   1.358       .  S
C1516      C1517   1.401       .  A
C1516      H1521   1.084       .  S
C1517      C1518   1.406       .  A
C1518      F1519   1.357       .  S
C1523      C1524   1.405       .  A
C1523      C1528   1.403       .  A
C1523      H1530   1.083       .  S
C1524      C1525   1.404       .  A
C1525      C1526   1.393       .  A
C1525      F1532   1.357       .  S
C1526      C1527   1.400       .  A
C1526      H1531   1.078       .  S
C1527      C1528   1.409       .  A
C1528      F1529   1.357       .  S
C1533      C1534   1.402       .  A
C1533      C1538   1.397       .  A
C1533      H1540   1.084       .  S
C1534      C1535   1.407       .  A
C1535      C1536   1.398       .  A
C1535      F1542   1.357       .  S
C1536      C1537   1.403       .  A
C1536      H1541   1.083       .  S
C1537      C1538   1.406       .  A
C1538      F1539   1.358       .  S
C1543      C1544   1.401       .  A
C1543      C1548   1.393       .  A
C1543      H1550   1.084       .  S
C1544      C1545   1.406       .  A
C1545      C1546   1.406       .  A
C1545      F1552   1.357       .  S
C1546      C1547   1.406       .  A
C1546      H1551   1.083       .  S
C1547      C1548   1.404       .  A
C1548      F1549   1.358       .  S
C1553      C1554   1.401       .  A
C1553      C1558   1.394       .  A
C1553      H1560   1.084       .  S
C1554      C1555   1.410       .  A
C1555      C1556   1.401       .  A
C1555      F1562   1.357       .  S
C1556      C1557   1.401       .  A
C1556      H1561   1.083       .  S
C1557      C1558   1.404       .  A
C1558      F1559   1.358       .  S
C1563      C1564   1.407       .  A
C1563      C1568   1.405       .  A
C1563      H1570   1.083       .  S
C1564      C1565   1.405       .  A
C1565      C1566   1.391       .  A
C1565      F1572   1.357       .  S
C1566      C1567   1.400       .  A
C1566      H1571   1.084       .  S
C1567      C1568   1.406       .  A
C1568      F1569   1.356       .  S
C1573      H1574   1.111       .  S
C1573      C1579   1.537       .  S
C1573      C1578   1.537       .  S
C1573      C1577   1.540       .  S
C1575      H1576   1.111       .  S
C1575      C1581   1.536       .  S
C1575      C1580   1.532       .  S
C1575      C1582   1.534       .  S
C1577      C1580   1.372       .  D
C1577      C2041   1.482       .  S
C1578      C1581   1.372       .  D
C1578      C2048   1.481       .  S
C1579      C1582   1.373       .  D
C1579      C2058   1.476       .  S
C1580      C2088   1.480       .  S
C1581      C2071   1.481       .  S
C1582      C2078   1.486       .  S
C1583      H1584   1.111       .  S
C1583      C1589   1.536       .  S
C1583      C1588   1.535       .  S
C1583      C1587   1.532       .  S
C1585      H1586   1.111       .  S
C1585      C1591   1.537       .  S
C1585      C1590   1.533       .  S
C1585      C1592   1.540       .  S
C1587      C1590   1.368       .  D
C1587      C2008   1.479       .  S
C1588      C1591   1.372       .  D
C1588      C2031   1.484       .  S
C1589      C1592   1.376       .  D
C1589      C2021   1.489       .  S
C1590      C2001   1.472       .  S
C1591      C2061   1.476       .  S
C1592      C1988   1.481       .  S
C1593      H1594   1.111       .  S
C1593      C1599   1.538       .  S
C1593      C1598   1.535       .  S
C1593      C1597   1.542       .  S
C1595      H1596   1.112       .  S
C1595      C1601   1.532       .  S
C1595      C1600   1.534       .  S
C1595      C1602   1.537       .  S
C1597      C1600   1.373       .  D
C1597      C1938   1.479       .  S
C1598      C1601   1.369       .  D
C1598      C1998   1.472       .  S
C1599      C1602   1.370       .  D
C1599      C1948   1.478       .  S
C1600      C1958   1.480       .  S
C1601      C1968   1.478       .  S
C1602      C1978   1.485       .  S
C1603      H1604   1.112       .  S
C1603      C1609   1.533       .  S
C1603      C1608   1.529       .  S
C1603      C1607   1.535       .  S
C1605      H1606   1.111       .  S
C1605      C1611   1.538       .  S
C1605      C1610   1.543       .  S
C1605      C1612   1.540       .  S
C1607      C1610   1.377       .  D
C1607      C1928   1.490       .  S
C1608      C1611   1.366       .  D
C1608      C1908   1.473       .  S
C1609      C1612   1.374       .  D
C1609      C1921   1.480       .  S
C1610      C2051   1.482       .  S
C1611      C1951   1.477       .  S
C1612      C1901   1.480       .  S
C1613      H1614   1.111       .  S
C1613      C1619   1.541       .  S
C1613      C1618   1.542       .  S
C1613      C1617   1.542       .  S
C1615      H1616   1.111       .  S
C1615      C1621   1.530       .  S
C1615      C1620   1.533       .  S
C1615      C1622   1.534       .  S
C1617      C1620   1.373       .  D
C1617      C1898   1.481       .  S
C1618      C1621   1.373       .  D
C1618      C1861   1.483       .  S
C1619      C1622   1.372       .  D
C1619      C1848   1.479       .  S
C1620      C1888   1.487       .  S
C1621      C1878   1.482       .  S
C1622      C1868   1.483       .  S
C1623      H1624   1.111       .  S
C1623      C1629   1.533       .  S
C1623      C1628   1.532       .  S
C1623      C1627   1.536       .  S
C1625      H1626   1.111       .  S
C1625      C1631   1.542       .  S
C1625      C1630   1.541       .  S
C1625      C1632   1.541       .  S
C1627      C1630   1.375       .  D
C1627      C1828   1.486       .  S
C1628      C1631   1.374       .  D
C1628      C1821   1.488       .  S
C1629      C1632   1.372       .  D
C1629      C1838   1.483       .  S
C1630      C1858   1.483       .  S
C1631      C1808   1.482       .  S
C1632      C2038   1.481       .  S
C1633      H1634   1.107       .  S
C1633      C1639   1.540       .  S
C1633      C1638   1.540       .  S
C1633      C1637   1.536       .  S
C1635      H1636   1.111       .  S
C1635      C1641   1.539       .  S
C1635      C1640   1.535       .  S
C1635      C1642   1.544       .  S
C1637      C1640   1.370       .  D
C1637      C1791   1.478       .  S
C1638      C1641   1.373       .  D
C1638      C1778   1.491       .  S
C1639      C1642   1.380       .  D
C1639      C1798   1.500       .  S
C1640      C1768   1.478       .  S
C1641      C1851   1.487       .  S
C1642      C1941   1.485       .  S
C1643      H1644   1.111       .  S
C1643      C1649   1.540       .  S
C1643      C1648   1.539       .  S
C1643      C1647   1.538       .  S
C1645      H1646   1.111       .  S
C1645      C1651   1.534       .  S
C1645      C1650   1.536       .  S
C1645      C1652   1.534       .  S
C1647      C1650   1.372       .  D
C1647      C1991   1.482       .  S
C1648      C1651   1.374       .  D
C1648      C1771   1.475       .  S
C1649      C1652   1.374       .  D
C1649      C1811   1.480       .  S
C1650      C1758   1.481       .  S
C1651      C1738   1.493       .  S
C1652      C1748   1.483       .  S
O1653     Cu1661   1.982       .  S
O1653      C1663   1.275       .  A
O1654     Cu2709   1.983   1_565  S
O1654      C1664   1.275       .  A
O1655     Cu3757   1.992       .  S
O1655      C1665   1.276       .  A
O1656      C1666   1.276       .  A
O1657      C1666   1.280       .  A
O1658     Cu3758   2.020       .  S
O1658      C1665   1.278       .  A
O1659     Cu2710   2.034   1_565  S
O1659      C1664   1.280       .  A
O1660     Cu1662   2.037       .  S
O1660      C1663   1.281       .  A
Cu1661     O2702   1.981   1_455  S
Cu1661     O3751   1.998   1_455  S
Cu1661    Cu1662   2.373       .  S
Cu1662     O3754   2.026   1_455  S
Cu1662     O2707   2.036   1_455  S
C1663      C1801   1.474       .  S
C1664      C1841   1.471       .  S
C1665      C1761   1.468       .  S
C1666      C1891   1.476       .  S
O1667     Cu3771   2.006       .  S
O1667      C1677   1.278       .  A
O1668      C1678   1.275       .  A
O1669     Cu1675   1.992       .  S
O1669      C1679   1.276       .  A
O1670     Cu2723   1.985   1_565  S
O1670      C1680   1.276       .  A
O1671     Cu2724   2.022   1_565  S
O1671      C1680   1.279       .  A
O1672     Cu1676   2.025       .  S
O1672      C1679   1.279       .  A
O1673      C1678   1.279       .  A
O1674     Cu3772   2.023       .  S
O1674      C1677   1.279       .  A
Cu1675     O3763   2.000   1_455  S
Cu1675     O2718   1.991   1_455  S
Cu1675    Cu1676   2.374       .  S
Cu1676     O2719   2.025   1_455  S
Cu1676     O3770   2.018   1_455  S
C1677      C2018   1.478       .  S
C1678      C1918   1.468       .  S
C1679      C1961   1.470       .  S
C1680      C2091   1.468       .  S
O1681      C1691   1.278       .  A
O1682     Cu1689   2.022       .  S
O1682      C1692   1.277       .  A
O1683      C1693   1.280       .  A
O1684      C1694   1.280       .  A
O1685      C1694   1.274       .  A
O1686      C1693   1.276       .  A
O1687     Cu1690   1.996       .  S
O1687      C1692   1.276       .  A
O1688      C1691   1.279       .  A
Cu1689    Cu1690   2.374       .  S
C1691      C1931   1.478       .  S
C1692      C1788   1.465       .  S
C1693      C1881   1.476       .  S
C1694      C1971   1.470       .  S
O1695      C1705   1.275       .  A
O1696     Cu3799   1.988       .  S
O1696      C1706   1.276       .  A
O1697     Cu3275   1.983   1_556  S
O1697      C1707   1.275       .  A
O1698     Cu1703   1.995       .  S
O1698      C1708   1.276       .  A
O1699     Cu1704   2.019       .  S
O1699      C1708   1.279       .  A
O1700     Cu3276   2.036   1_556  S
O1700      C1707   1.280       .  A
O1701     Cu3800   2.032       .  S
O1701      C1706   1.280       .  A
O1702      C1705   1.281       .  A
Cu1703     O3792   1.982   1_455  S
Cu1703     O3269   1.989   1_455  S
Cu1703    Cu1704   2.373       .  S
Cu1704     O3272   2.034   1_455  S
Cu1704     O3797   2.027   1_455  S
C1705      C1981   1.474       .  S
C1706      C1751   1.474       .  S
C1707      C2028   1.474       .  S
C1708      C1781   1.470       .  S
O1709      C1719   1.278       .  A
O1710      C1720   1.279       .  A
O1711     Cu1717   2.040       .  S
O1711      C1721   1.281       .  A
O1712      C1722   1.279       .  A
O1713      C1722   1.276       .  A
O1714     Cu1718   1.995       .  S
O1714      C1721   1.276       .  A
O1715      C1720   1.276       .  A
O1716      C1719   1.275       .  A
Cu1717    Cu1718   2.374       .  S
C1719      C2011   1.468       .  S
C1720      C1831   1.470       .  S
C1721      C1741   1.479       .  S
C1722      C2068   1.471       .  S
O1723      C1733   1.278       .  A
O1724     Cu3827   2.021       .  S
O1724      C1734   1.279       .  A
O1725     Cu3303   2.028   1_556  S
O1725      C1735   1.280       .  A
O1726     Cu1731   2.028   1_455  S
O1726      C1736   1.280       .  A
O1727     Cu1732   1.989       .  S
O1727      C1736   1.276       .  A
O1728     Cu3304   1.988   1_556  S
O1728      C1735   1.275       .  A
O1729     Cu3828   1.996       .  S
O1729      C1734   1.277       .  A
O1730      C1733   1.276       .  A
Cu1731     O3820   2.023       .  S
Cu1731     O3297   2.029       .  S
Cu1731    Cu1732   2.377   1_655  S
Cu1732     O3300   1.989   1_455  S
Cu1732     O3825   1.996   1_455  S
C1733      C1911   1.465       .  S
C1734      C1818   1.471       .  S
C1735      C2081   1.470       .  S
C1736      C1871   1.474       .  S
C1737      C1738   1.403       .  A
C1737      C1742   1.396       .  A
C1737      H1744   1.084       .  S
C1738      C1739   1.412       .  A
C1739      C1740   1.404       .  A
C1739      F1746   1.356       .  S
C1740      C1741   1.403       .  A
C1740      H1745   1.083       .  S
C1741      C1742   1.407       .  A
C1742      F1743   1.357       .  S
C1747      C1748   1.401       .  A
C1747      C1752   1.390       .  A
C1747      H1754   1.084       .  S
C1748      C1749   1.409       .  A
C1749      C1750   1.408       .  A
C1749      F1756   1.357       .  S
C1750      C1751   1.406       .  A
C1750      H1755   1.083       .  S
C1751      C1752   1.403       .  A
C1752      F1753   1.358       .  S
C1757      C1758   1.401       .  A
C1757      C1762   1.392       .  A
C1757      H1764   1.084       .  S
C1758      C1759   1.409       .  A
C1759      C1760   1.403       .  A
C1759      F1766   1.357       .  S
C1760      C1761   1.404       .  A
C1760      H1765   1.083       .  S
C1761      C1762   1.402       .  A
C1762      F1763   1.358       .  S
C1767      C1768   1.403       .  A
C1767      C1772   1.398       .  A
C1767      H1774   1.084       .  S
C1768      C1769   1.405       .  A
C1769      C1770   1.395       .  A
C1769      F1776   1.354       .  S
C1770      C1771   1.401       .  A
C1770      H1775   1.083       .  S
C1771      C1772   1.404       .  A
C1772      F1773   1.357       .  S
C1777      C1778   1.408       .  A
C1777      C1782   1.399       .  A
C1777      H1784   1.081       .  S
C1778      C1779   1.408       .  A
C1779      C1780   1.395       .  A
C1779      F1786   1.356       .  S
C1780      C1781   1.401       .  A
C1780      H1785   1.084       .  S
C1781      C1782   1.403       .  A
C1782      F1783   1.356       .  S
C1787      C1788   1.400       .  A
C1787      C1792   1.396       .  A
C1787      H1794   1.084       .  S
C1788      C1789   1.404       .  A
C1789      C1790   1.401       .  A
C1789      F1796   1.357       .  S
C1790      C1791   1.402       .  A
C1790      H1795   1.083       .  S
C1791      C1792   1.405       .  A
C1792      F1793   1.357       .  S
C1797      C1798   1.411       .  A
C1797      C1802   1.404       .  A
C1797      H1804   1.082       .  S
C1798      C1799   1.411       .  A
C1799      C1800   1.391       .  A
C1799      F1806   1.352       .  S
C1800      C1801   1.398       .  A
C1800      H1805   1.084       .  S
C1801      C1802   1.403       .  A
C1802      F1803   1.355       .  S
C1807      C1808   1.404       .  A
C1807      C1812   1.401       .  A
C1807      H1814   1.083       .  S
C1808      C1809   1.405       .  A
C1809      C1810   1.396       .  A
C1809      F1816   1.358       .  S
C1810      C1811   1.402       .  A
C1810      H1815   1.084       .  S
C1811      C1812   1.406       .  A
C1812      F1813   1.357       .  S
C1817      C1818   1.400       .  A
C1817      C1822   1.392       .  A
C1817      H1824   1.084       .  S
C1818      C1819   1.405       .  A
C1819      C1820   1.403       .  A
C1819      F1826   1.357       .  S
C1820      C1821   1.408       .  A
C1820      H1825   1.083       .  S
C1821      C1822   1.407       .  A
C1822      F1823   1.357       .  S
C1827      C1828   1.402       .  A
C1827      C1832   1.390       .  A
C1827      H1834   1.084       .  S
C1828      C1829   1.411       .  A
C1829      C1830   1.406       .  A
C1829      F1836   1.357       .  S
C1830      C1831   1.404       .  A
C1830      H1835   1.083       .  S
C1831      C1832   1.402       .  A
C1832      F1833   1.357       .  S
C1837      C1838   1.401       .  A
C1837      C1842   1.390       .  A
C1837      H1844   1.084       .  S
C1838      C1839   1.408       .  A
C1839      C1840   1.407       .  A
C1839      F1846   1.357       .  S
C1840      C1841   1.405       .  A
C1840      H1845   1.082       .  S
C1841      C1842   1.403       .  A
C1842      F1843   1.358       .  S
C1847      C1848   1.405       .  A
C1847      C1852   1.404       .  A
C1847      H1854   1.083       .  S
C1848      C1849   1.401       .  A
C1849      C1850   1.393       .  A
C1849      F1856   1.358       .  S
C1850      C1851   1.400       .  A
C1850      H1855   1.079       .  S
C1851      C1852   1.408       .  A
C1852      F1853   1.357       .  S
C1857      C1858   1.403       .  A
C1857      C1862   1.397       .  A
C1857      H1864   1.084       .  S
C1858      C1859   1.406       .  A
C1859      C1860   1.399       .  A
C1859      F1866   1.357       .  S
C1860      C1861   1.405       .  A
C1860      H1865   1.083       .  S
C1861      C1862   1.405       .  A
C1862      F1863   1.357       .  S
C1867      C1868   1.402       .  A
C1867      C1872   1.391       .  A
C1867      H1874   1.084       .  S
C1868      C1869   1.409       .  A
C1869      C1870   1.404       .  A
C1869      F1876   1.356       .  S
C1870      C1871   1.404       .  A
C1870      H1875   1.082       .  S
C1871      C1872   1.405       .  A
C1872      F1873   1.357       .  S
C1877      C1878   1.401       .  A
C1877      C1882   1.394       .  A
C1877      H1884   1.084       .  S
C1878      C1879   1.407       .  A
C1879      C1880   1.404       .  A
C1879      F1886   1.357       .  S
C1880      C1881   1.405       .  A
C1880      H1885   1.083       .  S
C1881      C1882   1.406       .  A
C1882      F1883   1.358       .  S
C1887      C1888   1.407       .  A
C1887      C1892   1.404       .  A
C1887      H1894   1.083       .  S
C1888      C1889   1.405       .  A
C1889      C1890   1.394       .  A
C1889      F1896   1.358       .  S
C1890      C1891   1.403       .  A
C1890      H1895   1.084       .  S
C1891      C1892   1.406       .  A
C1892      F1893   1.356       .  S
C1897      C1898   1.402       .  A
C1897      C1902   1.396       .  A
C1897      H1904   1.084       .  S
C1898      C1899   1.407       .  A
C1899      C1900   1.399       .  A
C1899      F1906   1.357       .  S
C1900      C1901   1.404       .  A
C1900      H1905   1.083       .  S
C1901      C1902   1.405       .  A
C1902      F1903   1.357       .  S
C1907      C1908   1.399       .  A
C1907      C1912   1.394       .  A
C1907      H1914   1.084       .  S
C1908      C1909   1.406       .  A
C1909      C1910   1.402       .  A
C1909      F1916   1.356       .  S
C1910      C1911   1.402       .  A
C1910      H1915   1.083       .  S
C1911      C1912   1.403       .  A
C1912      F1913   1.357       .  S
C1917      C1918   1.402       .  A
C1917      C1922   1.402       .  A
C1917      H1924   1.083       .  S
C1918      C1919   1.403       .  A
C1919      C1920   1.393       .  A
C1919      F1926   1.358       .  S
C1920      C1921   1.402       .  A
C1920      H1925   1.084       .  S
C1921      C1922   1.408       .  A
C1922      F1923   1.357       .  S
C1927      C1928   1.405       .  A
C1927      C1932   1.397       .  A
C1927      H1934   1.084       .  S
C1928      C1929   1.408       .  A
C1929      C1930   1.401       .  A
C1929      F1936   1.357       .  S
C1930      C1931   1.405       .  A
C1930      H1935   1.083       .  S
C1931      C1932   1.405       .  A
C1932      F1933   1.358       .  S
C1937      C1938   1.406       .  A
C1937      C1942   1.402       .  A
C1937      H1944   1.083       .  S
C1938      C1939   1.400       .  A
C1939      C1940   1.388       .  A
C1939      F1946   1.355       .  S
C1940      C1941   1.398       .  A
C1940      H1945   1.078       .  S
C1941      C1942   1.409       .  A
C1942      F1943   1.357       .  S
C1947      C1948   1.402       .  A
C1947      C1952   1.398       .  A
C1947      H1954   1.081       .  S
C1948      C1949   1.404       .  A
C1949      C1950   1.400       .  A
C1949      F1956   1.357       .  S
C1950      C1951   1.403       .  A
C1950      H1955   1.083       .  S
C1951      C1952   1.402       .  A
C1952      F1953   1.356       .  S
C1957      C1958   1.405       .  A
C1957      C1962   1.403       .  A
C1957      H1964   1.083       .  S
C1958      C1959   1.404       .  A
C1959      C1960   1.393       .  A
C1959      F1966   1.357       .  S
C1960      C1961   1.401       .  A
C1960      H1965   1.084       .  S
C1961      C1962   1.405       .  A
C1962      F1963   1.357       .  S
C1967      C1968   1.400       .  A
C1967      C1972   1.394       .  A
C1967      H1974   1.084       .  S
C1968      C1969   1.407       .  A
C1969      C1970   1.402       .  A
C1969      F1976   1.355       .  S
C1970      C1971   1.403       .  A
C1970      H1975   1.083       .  S
C1971      C1972   1.405       .  A
C1972      F1973   1.358       .  S
C1977      C1978   1.407       .  A
C1977      C1982   1.402       .  A
C1977      H1984   1.081       .  S
C1978      C1979   1.404       .  A
C1979      C1980   1.394       .  A
C1979      F1986   1.357       .  S
C1980      C1981   1.404       .  A
C1980      H1985   1.084       .  S
C1981      C1982   1.405       .  A
C1982      F1983   1.357       .  S
C1987      C1988   1.402       .  A
C1987      C1992   1.395       .  A
C1987      H1994   1.083       .  S
C1988      C1989   1.407       .  A
C1989      C1990   1.400       .  A
C1989      F1996   1.357       .  S
C1990      C1991   1.404       .  A
C1990      H1995   1.083       .  S
C1991      C1992   1.405       .  A
C1992      F1993   1.357       .  S
C1997      C1998   1.400       .  A
C1997      C2002   1.396       .  A
C1997      H2004   1.082       .  S
C1998      C1999   1.404       .  A
C1999      C2000   1.399       .  A
C1999      F2006   1.357       .  S
C2000      C2001   1.401       .  A
C2000      H2005   1.083       .  S
C2001      C2002   1.403       .  A
C2002      F2003   1.358       .  S
C2007      C2008   1.406       .  A
C2007      C2012   1.401       .  A
C2007      H2014   1.080       .  S
C2008      C2009   1.403       .  A
C2009      C2010   1.389       .  A
C2009      F2016   1.357       .  S
C2010      C2011   1.401       .  A
C2010      H2015   1.084       .  S
C2011      C2012   1.405       .  A
C2012      F2013   1.357       .  S
C2017      C2018   1.404       .  A
C2017      C2022   1.403       .  A
C2017      H2024   1.083       .  S
C2018      C2019   1.405       .  A
C2019      C2020   1.397       .  A
C2019      F2026   1.358       .  S
C2020      C2021   1.404       .  A
C2020      H2025   1.084       .  S
C2021      C2022   1.410       .  A
C2022      F2023   1.356       .  S
C2027      C2028   1.402       .  A
C2027      C2032   1.392       .  A
C2027      H2034   1.083       .  S
C2028      C2029   1.405       .  A
C2029      C2030   1.405       .  A
C2029      F2036   1.356       .  S
C2030      C2031   1.407       .  A
C2030      H2035   1.083       .  S
C2031      C2032   1.404       .  A
C2032      F2033   1.358       .  S
C2037      C2038   1.404       .  A
C2037      C2042   1.400       .  A
C2037      H2044   1.083       .  S
C2038      C2039   1.405       .  A
C2039      C2040   1.395       .  A
C2039      F2046   1.358       .  S
C2040      C2041   1.401       .  A
C2040      H2045   1.084       .  S
C2041      C2042   1.408       .  A
C2042      F2043   1.357       .  S
C2047      C2048   1.404       .  A
C2047      C2052   1.402       .  A
C2047      H2054   1.083       .  S
C2048      C2049   1.406       .  A
C2049      C2050   1.392       .  A
C2049      F2056   1.357       .  S
C2050      C2051   1.399       .  A
C2050      H2055   1.080       .  S
C2051      C2052   1.408       .  A
C2052      F2053   1.357       .  S
C2057      C2058   1.400       .  A
C2057      C2062   1.392       .  A
C2057      H2064   1.084       .  S
C2058      C2059   1.406       .  A
C2059      C2060   1.398       .  A
C2059      F2066   1.357       .  S
C2060      C2061   1.404       .  A
C2060      H2065   1.083       .  S
C2061      C2062   1.404       .  A
C2062      F2063   1.357       .  S
C2067      C2068   1.401       .  A
C2067      C2072   1.392       .  A
C2067      H2074   1.084       .  S
C2068      C2069   1.406       .  A
C2069      C2070   1.406       .  A
C2069      F2076   1.357       .  S
C2070      C2071   1.406       .  A
C2070      H2075   1.083       .  S
C2071      C2072   1.404       .  A
C2072      F2073   1.358       .  S
C2077      C2078   1.402       .  A
C2077      C2082   1.395       .  A
C2077      H2084   1.084       .  S
C2078      C2079   1.411       .  A
C2079      C2080   1.401       .  A
C2079      F2086   1.356       .  S
C2080      C2081   1.401       .  A
C2080      H2085   1.082       .  S
C2081      C2082   1.404       .  A
C2082      F2083   1.358       .  S
C2087      C2088   1.406       .  A
C2087      C2092   1.402       .  A
C2087      H2094   1.083       .  S
C2088      C2089   1.404       .  A
C2089      C2090   1.389       .  A
C2089      F2096   1.357       .  S
C2090      C2091   1.400       .  A
C2090      H2095   1.084       .  S
C2091      C2092   1.405       .  A
C2092      F2093   1.356       .  S
C2097      H2098   1.111       .  S
C2097      C2103   1.537       .  S
C2097      C2102   1.538       .  S
C2097      C2101   1.542       .  S
C2099      H2100   1.111       .  S
C2099      C2105   1.536       .  S
C2099      C2104   1.531       .  S
C2099      C2106   1.536       .  S
C2101      C2104   1.374       .  D
C2101      C2565   1.481       .  S
C2102      C2105   1.371       .  D
C2102      C2572   1.480       .  S
C2103      C2106   1.373       .  D
C2103      C2582   1.481       .  S
C2104      C2612   1.483       .  S
C2105      C2595   1.482       .  S
C2106      C2602   1.485       .  S
C2107      H2108   1.111       .  S
C2107      C2113   1.534       .  S
C2107      C2112   1.537       .  S
C2107      C2111   1.532       .  S
C2109      H2110   1.111       .  S
C2109      C2115   1.537       .  S
C2109      C2114   1.534       .  S
C2109      C2116   1.540       .  S
C2111      C2114   1.368       .  D
C2111      C2532   1.482       .  S
C2112      C2115   1.374       .  D
C2112      C2555   1.482       .  S
C2113      C2116   1.374       .  D
C2113      C2545   1.487       .  S
C2114      C2525   1.470       .  S
C2115      C2585   1.481       .  S
C2116      C2512   1.480       .  S
C2117      H2118   1.111       .  S
C2117      C2123   1.538       .  S
C2117      C2122   1.533       .  S
C2117      C2121   1.542       .  S
C2119      H2120   1.112       .  S
C2119      C2125   1.532       .  S
C2119      C2124   1.534       .  S
C2119      C2126   1.537       .  S
C2121      C2124   1.373       .  D
C2121      C2462   1.479       .  S
C2122      C2125   1.368       .  D
C2122      C2522   1.470       .  S
C2123      C2126   1.371       .  D
C2123      C2472   1.476       .  S
C2124      C2482   1.481       .  S
C2125      C2492   1.478       .  S
C2126      C2502   1.486       .  S
C2127      H2128   1.112       .  S
C2127      C2133   1.535       .  S
C2127      C2132   1.530       .  S
C2127      C2131   1.537       .  S
C2129      H2130   1.111       .  S
C2129      C2135   1.536       .  S
C2129      C2134   1.540       .  S
C2129      C2136   1.536       .  S
C2131      C2134   1.377       .  D
C2131      C2452   1.490       .  S
C2132      C2135   1.366       .  D
C2132      C2432   1.474       .  S
C2133      C2136   1.373       .  D
C2133      C2445   1.477       .  S
C2134      C2575   1.481       .  S
C2135      C2475   1.474       .  S
C2136      C2425   1.479       .  S
C2137      H2138   1.111       .  S
C2137      C2143   1.540       .  S
C2137      C2142   1.543       .  S
C2137      C2141   1.542       .  S
C2139      H2140   1.111       .  S
C2139      C2145   1.531       .  S
C2139      C2144   1.533       .  S
C2139      C2146   1.534       .  S
C2141      C2144   1.373       .  D
C2141      C2422   1.479       .  S
C2142      C2145   1.374       .  D
C2142      C2385   1.483       .  S
C2143      C2146   1.370       .  D
C2143      C2372   1.480       .  S
C2144      C2412   1.489       .  S
C2145      C2402   1.483       .  S
C2146      C2392   1.480       .  S
C2147      H2148   1.111       .  S
C2147      C2153   1.534       .  S
C2147      C2152   1.533       .  S
C2147      C2151   1.536       .  S
C2149      H2150   1.111       .  S
C2149      C2155   1.542       .  S
C2149      C2154   1.541       .  S
C2149      C2156   1.540       .  S
C2151      C2154   1.375       .  D
C2151      C2352   1.487       .  S
C2152      C2155   1.374       .  D
C2152      C2345   1.485       .  S
C2153      C2156   1.373       .  D
C2153      C2362   1.485       .  S
C2154      C2382   1.483       .  S
C2155      C2332   1.483       .  S
C2156      C2562   1.481       .  S
C2157      H2158   1.108       .  S
C2157      C2163   1.541       .  S
C2157      C2162   1.540       .  S
C2157      C2161   1.536       .  S
C2159      H2160   1.111       .  S
C2159      C2165   1.540       .  S
C2159      C2164   1.537       .  S
C2159      C2166   1.543       .  S
C2161      C2164   1.370       .  D
C2161      C2315   1.479       .  S
C2162      C2165   1.373       .  D
C2162      C2302   1.490       .  S
C2163      C2166   1.380       .  D
C2163      C2322   1.499       .  S
C2164      C2292   1.480       .  S
C2165      C2375   1.486       .  S
C2166      C2465   1.486       .  S
C2167      H2168   1.111       .  S
C2167      C2173   1.540       .  S
C2167      C2172   1.538       .  S
C2167      C2171   1.540       .  S
C2169      H2170   1.111       .  S
C2169      C2175   1.533       .  S
C2169      C2174   1.535       .  S
C2169      C2176   1.534       .  S
C2171      C2174   1.372       .  D
C2171      C2515   1.480       .  S
C2172      C2175   1.373       .  D
C2172      C2295   1.477       .  S
C2173      C2176   1.373       .  D
C2173      C2335   1.481       .  S
C2174      C2282   1.485       .  S
C2175      C2262   1.490       .  S
C2176      C2272   1.481       .  S
O2177     Cu2185   1.982       .  S
O2177      C2187   1.275       .  A
O2178      C2188   1.274       .  A
O2179      C2189   1.277       .  A
O2180     Cu3233   1.990       .  S
O2180      C2190   1.276       .  A
O2181     Cu3234   2.040       .  S
O2181      C2190   1.281       .  A
O2182      C2189   1.278       .  A
O2183      C2188   1.281       .  A
O2184     Cu2186   2.038       .  S
O2184      C2187   1.280       .  A
Cu2185     O3228   1.989   1_545  S
Cu2185    Cu2186   2.374       .  S
Cu2186     O3229   2.037   1_545  S
C2187      C2325   1.474       .  S
C2188      C2365   1.471       .  S
C2189      C2285   1.471       .  S
C2190      C2415   1.478       .  S
O2191      C2201   1.277       .  A
O2192     Cu3247   1.985       .  S
O2192      C2202   1.275       .  A
O2193     Cu2199   1.993       .  S
O2193      C2203   1.276       .  A
O2194      C2204   1.276       .  A
O2195      C2204   1.279       .  A
O2196     Cu2200   2.029       .  S
O2196      C2203   1.279       .  A
O2197     Cu3248   2.029       .  S
O2197      C2202   1.279       .  A
O2198      C2201   1.279       .  A
Cu2199     O3240   1.987   1_545  S
Cu2199    Cu2200   2.374       .  S
Cu2200     O3245   2.032   1_545  S
C2201      C2542   1.475       .  S
C2202      C2442   1.467       .  S
C2203      C2485   1.472       .  S
C2204      C2615   1.472       .  S
O2205     Cu3785   2.016       .  S
O2205      C2215   1.278       .  A
O2206     Cu2213   2.023   1_544  S
O2206      C2216   1.277       .  A
O2207     Cu3261   2.029       .  S
O2207      C2217   1.280       .  A
O2208     Cu2737   2.033   1_545  S
O2208      C2218   1.280       .  A
O2209     Cu2738   1.986       .  S
O2209      C2218   1.275       .  A
O2210     Cu3262   1.994       .  S
O2210      C2217   1.276       .  A
O2211     Cu2214   1.996       .  S
O2211      C2216   1.276       .  A
O2212     Cu3786   2.013       .  S
O2212      C2215   1.279       .  A
Cu2213     O3777   2.012       .  S
Cu2213     O3255   2.032   1_556  S
Cu2213     O2732   2.039   1_565  S
Cu2213    Cu2214   2.374   1_566  S
Cu2214     O2733   1.988   1_554  S
Cu2214     O3258   1.996   1_545  S
Cu2214     O3784   2.010   1_544  S
C2215      C2455   1.479       .  S
C2216      C2312   1.466       .  S
C2217      C2405   1.476       .  S
C2218      C2495   1.471       .  S
O2219     Cu2751   1.986       .  S
O2219      C2229   1.275       .  A
O2220      C2230   1.275       .  A
O2221      C2231   1.275       .  A
O2222     Cu2227   1.997       .  S
O2222      C2232   1.276       .  A
O2223     Cu2228   2.019       .  S
O2223      C2232   1.279       .  A
O2224      C2231   1.280       .  A
O2225      C2230   1.279       .  A
O2226     Cu2752   2.032       .  S
O2226      C2229   1.280       .  A
Cu2227     O2743   1.989   1_554  S
Cu2227    Cu2228   2.373       .  S
Cu2228     O2750   2.035   1_554  S
C2229      C2505   1.474       .  S
C2230      C2275   1.470       .  S
C2231      C2552   1.471       .  S
C2232      C2305   1.471       .  S
O2233     Cu2765   2.022       .  S
O2233      C2243   1.278       .  A
O2234     Cu3289   2.032       .  S
O2234      C2244   1.279       .  A
O2235     Cu2241   2.036       .  S
O2235      C2245   1.281       .  A
O2236     Cu3813   2.031       .  S
O2236      C2246   1.279       .  A
O2237     Cu3814   1.991       .  S
O2237      C2246   1.276       .  A
O2238     Cu2242   1.995       .  S
O2238      C2245   1.276       .  A
O2239     Cu3290   1.989       .  S
O2239      C2244   1.276       .  A
O2240     Cu2766   1.984       .  S
O2240      C2243   1.276       .  A
Cu2241     O2757   2.026   1_554  S
Cu2241     O3282   2.029   1_545  S
Cu2241     O3808   2.037   1_544  S
Cu2241    Cu2242   2.375       .  S
Cu2242     O3809   1.991   1_544  S
Cu2242     O3287   1.987   1_545  S
Cu2242     O2764   1.988   1_554  S
C2243      C2535   1.470       .  S
C2244      C2355   1.471       .  S
C2245      C2265   1.477       .  S
C2246      C2592   1.472       .  S
O2247     Cu2779   2.022       .  S
O2247      C2257   1.278       .  A
O2248      C2258   1.278       .  A
O2249      C2259   1.280       .  A
O2250     Cu2255   2.023       .  S
O2250      C2260   1.279       .  A
O2251     Cu2256   1.987       .  S
O2251      C2260   1.276       .  A
O2252      C2259   1.274       .  A
O2253      C2258   1.276       .  A
O2254     Cu2780   1.996       .  S
O2254      C2257   1.276       .  A
Cu2255     O2771   2.019   1_554  S
Cu2255    Cu2256   2.377       .  S
Cu2256     O2778   1.996   1_554  S
C2257      C2435   1.467       .  S
C2258      C2342   1.469       .  S
C2259      C2605   1.469       .  S
C2260      C2395   1.471       .  S
C2261      C2262   1.402       .  A
C2261      C2266   1.396       .  A
C2261      H2268   1.084       .  S
C2262      C2263   1.411       .  A
C2263      C2264   1.404       .  A
C2263      F2270   1.356       .  S
C2264      C2265   1.404       .  A
C2264      H2269   1.083       .  S
C2265      C2266   1.406       .  A
C2266      F2267   1.357       .  S
C2271      C2272   1.401       .  A
C2271      C2276   1.388       .  A
C2271      H2278   1.084       .  S
C2272      C2273   1.409       .  A
C2273      C2274   1.406       .  A
C2273      F2280   1.357       .  S
C2274      C2275   1.405       .  A
C2274      H2279   1.083       .  S
C2275      C2276   1.403       .  A
C2276      F2277   1.358       .  S
C2281      C2282   1.402       .  A
C2281      C2286   1.393       .  A
C2281      H2288   1.084       .  S
C2282      C2283   1.410       .  A
C2283      C2284   1.404       .  A
C2283      F2290   1.357       .  S
C2284      C2285   1.404       .  A
C2284      H2289   1.083       .  S
C2285      C2286   1.403       .  A
C2286      F2287   1.358       .  S
C2291      C2292   1.403       .  A
C2291      C2296   1.398       .  A
C2291      H2298   1.084       .  S
C2292      C2293   1.406       .  A
C2293      C2294   1.395       .  A
C2293      F2300   1.354       .  S
C2294      C2295   1.401       .  A
C2294      H2299   1.083       .  S
C2295      C2296   1.404       .  A
C2296      F2297   1.357       .  S
C2301      C2302   1.408       .  A
C2301      C2306   1.400       .  A
C2301      H2308   1.082       .  S
C2302      C2303   1.408       .  A
C2303      C2304   1.395       .  A
C2303      F2310   1.356       .  S
C2304      C2305   1.401       .  A
C2304      H2309   1.084       .  S
C2305      C2306   1.403       .  A
C2306      F2307   1.357       .  S
C2311      C2312   1.400       .  A
C2311      C2316   1.397       .  A
C2311      H2318   1.084       .  S
C2312      C2313   1.404       .  A
C2313      C2314   1.401       .  A
C2313      F2320   1.357       .  S
C2314      C2315   1.402       .  A
C2314      H2319   1.083       .  S
C2315      C2316   1.405       .  A
C2316      F2317   1.357       .  S
C2321      C2322   1.411       .  A
C2321      C2326   1.405       .  A
C2321      H2328   1.082       .  S
C2322      C2323   1.409       .  A
C2323      C2324   1.390       .  A
C2323      F2330   1.352       .  S
C2324      C2325   1.398       .  A
C2324      H2329   1.084       .  S
C2325      C2326   1.404       .  A
C2326      F2327   1.355       .  S
C2331      C2332   1.404       .  A
C2331      C2336   1.401       .  A
C2331      H2338   1.083       .  S
C2332      C2333   1.405       .  A
C2333      C2334   1.396       .  A
C2333      F2340   1.357       .  S
C2334      C2335   1.401       .  A
C2334      H2339   1.084       .  S
C2335      C2336   1.407       .  A
C2336      F2337   1.357       .  S
C2341      C2342   1.399       .  A
C2341      C2346   1.391       .  A
C2341      H2348   1.084       .  S
C2342      C2343   1.405       .  A
C2343      C2344   1.404       .  A
C2343      F2350   1.357       .  S
C2344      C2345   1.407       .  A
C2344      H2349   1.083       .  S
C2345      C2346   1.406       .  A
C2346      F2347   1.357       .  S
C2351      C2352   1.402       .  A
C2351      C2356   1.391       .  A
C2351      H2358   1.084       .  S
C2352      C2353   1.411       .  A
C2353      C2354   1.406       .  A
C2353      F2360   1.356       .  S
C2354      C2355   1.404       .  A
C2354      H2359   1.083       .  S
C2355      C2356   1.402       .  A
C2356      F2357   1.357       .  S
C2361      C2362   1.401       .  A
C2361      C2366   1.390       .  A
C2361      H2368   1.084       .  S
C2362      C2363   1.409       .  A
C2363      C2364   1.406       .  A
C2363      F2370   1.356       .  S
C2364      C2365   1.403       .  A
C2364      H2369   1.082       .  S
C2365      C2366   1.404       .  A
C2366      F2367   1.359       .  S
C2371      C2372   1.406       .  A
C2371      C2376   1.404       .  A
C2371      H2378   1.083       .  S
C2372      C2373   1.400       .  A
C2373      C2374   1.394       .  A
C2373      F2380   1.358       .  S
C2374      C2375   1.401       .  A
C2374      H2379   1.069       .  S
C2375      C2376   1.406       .  A
C2376      F2377   1.357       .  S
C2381      C2382   1.403       .  A
C2381      C2386   1.396       .  A
C2381      H2388   1.084       .  S
C2382      C2383   1.406       .  A
C2383      C2384   1.399       .  A
C2383      F2390   1.357       .  S
C2384      C2385   1.405       .  A
C2384      H2389   1.083       .  S
C2385      C2386   1.405       .  A
C2386      F2387   1.357       .  S
C2391      C2392   1.401       .  A
C2391      C2396   1.391       .  A
C2391      H2398   1.084       .  S
C2392      C2393   1.408       .  A
C2393      C2394   1.402       .  A
C2393      F2400   1.356       .  S
C2394      C2395   1.403       .  A
C2394      H2399   1.083       .  S
C2395      C2396   1.405       .  A
C2396      F2397   1.358       .  S
C2401      C2402   1.401       .  A
C2401      C2406   1.393       .  A
C2401      H2408   1.084       .  S
C2402      C2403   1.408       .  A
C2403      C2404   1.404       .  A
C2403      F2410   1.357       .  S
C2404      C2405   1.405       .  A
C2404      H2409   1.083       .  S
C2405      C2406   1.406       .  A
C2406      F2407   1.358       .  S
C2411      C2412   1.408       .  A
C2411      C2416   1.404       .  A
C2411      H2418   1.083       .  S
C2412      C2413   1.405       .  A
C2413      C2414   1.395       .  A
C2413      F2420   1.358       .  S
C2414      C2415   1.404       .  A
C2414      H2419   1.084       .  S
C2415      C2416   1.406       .  A
C2416      F2417   1.356       .  S
C2421      C2422   1.401       .  A
C2421      C2426   1.395       .  A
C2421      H2428   1.084       .  S
C2422      C2423   1.406       .  A
C2423      C2424   1.398       .  A
C2423      F2430   1.357       .  S
C2424      C2425   1.403       .  A
C2424      H2429   1.083       .  S
C2425      C2426   1.405       .  A
C2426      F2427   1.357       .  S
C2431      C2432   1.399       .  A
C2431      C2436   1.395       .  A
C2431      H2438   1.084       .  S
C2432      C2433   1.405       .  A
C2433      C2434   1.402       .  A
C2433      F2440   1.357       .  S
C2434      C2435   1.402       .  A
C2434      H2439   1.083       .  S
C2435      C2436   1.403       .  A
C2436      F2437   1.357       .  S
C2441      C2442   1.402       .  A
C2441      C2446   1.401       .  A
C2441      H2448   1.083       .  S
C2442      C2443   1.404       .  A
C2443      C2444   1.394       .  A
C2443      F2450   1.358       .  S
C2444      C2445   1.401       .  A
C2444      H2449   1.083       .  S
C2445      C2446   1.407       .  A
C2446      F2447   1.357       .  S
C2451      C2452   1.404       .  A
C2451      C2456   1.398       .  A
C2451      H2458   1.084       .  S
C2452      C2453   1.409       .  A
C2453      C2454   1.401       .  A
C2453      F2460   1.356       .  S
C2454      C2455   1.405       .  A
C2454      H2459   1.083       .  S
C2455      C2456   1.406       .  A
C2456      F2457   1.358       .  S
C2461      C2462   1.406       .  A
C2461      C2466   1.401       .  A
C2461      H2468   1.082       .  S
C2462      C2463   1.401       .  A
C2463      C2464   1.389       .  A
C2463      F2470   1.356       .  S
C2464      C2465   1.400       .  A
C2464      H2469   1.065       .  S
C2465      C2466   1.408       .  A
C2466      F2467   1.357       .  S
C2471      C2472   1.402       .  A
C2471      C2476   1.397       .  A
C2471      H2478   1.082       .  S
C2472      C2473   1.403       .  A
C2473      C2474   1.399       .  A
C2473      F2480   1.357       .  S
C2474      C2475   1.402       .  A
C2474      H2479   1.083       .  S
C2475      C2476   1.401       .  A
C2476      F2477   1.356       .  S
C2481      C2482   1.405       .  A
C2481      C2486   1.404       .  A
C2481      H2488   1.083       .  S
C2482      C2483   1.403       .  A
C2483      C2484   1.394       .  A
C2483      F2490   1.357       .  S
C2484      C2485   1.401       .  A
C2484      H2489   1.084       .  S
C2485      C2486   1.406       .  A
C2486      F2487   1.357       .  S
C2491      C2492   1.400       .  A
C2491      C2496   1.394       .  A
C2491      H2498   1.084       .  S
C2492      C2493   1.407       .  A
C2493      C2494   1.402       .  A
C2493      F2500   1.355       .  S
C2494      C2495   1.403       .  A
C2494      H2499   1.083       .  S
C2495      C2496   1.405       .  A
C2496      F2497   1.358       .  S
C2501      C2502   1.407       .  A
C2501      C2506   1.402       .  A
C2501      H2508   1.080       .  S
C2502      C2503   1.405       .  A
C2503      C2504   1.394       .  A
C2503      F2510   1.357       .  S
C2504      C2505   1.403       .  A
C2504      H2509   1.084       .  S
C2505      C2506   1.405       .  A
C2506      F2507   1.357       .  S
C2511      C2512   1.401       .  A
C2511      C2516   1.394       .  A
C2511      H2518   1.083       .  S
C2512      C2513   1.407       .  A
C2513      C2514   1.400       .  A
C2513      F2520   1.357       .  S
C2514      C2515   1.404       .  A
C2514      H2519   1.083       .  S
C2515      C2516   1.404       .  A
C2516      F2517   1.357       .  S
C2521      C2522   1.400       .  A
C2521      C2526   1.396       .  A
C2521      H2528   1.082       .  S
C2522      C2523   1.404       .  A
C2523      C2524   1.398       .  A
C2523      F2530   1.357       .  S
C2524      C2525   1.400       .  A
C2524      H2529   1.083       .  S
C2525      C2526   1.403       .  A
C2526      F2527   1.358       .  S
C2531      C2532   1.407       .  A
C2531      C2536   1.402       .  A
C2531      H2538   1.080       .  S
C2532      C2533   1.403       .  A
C2533      C2534   1.390       .  A
C2533      F2540   1.357       .  S
C2534      C2535   1.401       .  A
C2534      H2539   1.084       .  S
C2535      C2536   1.405       .  A
C2536      F2537   1.357       .  S
C2541      C2542   1.403       .  A
C2541      C2546   1.401       .  A
C2541      H2548   1.083       .  S
C2542      C2543   1.405       .  A
C2543      C2544   1.396       .  A
C2543      F2550   1.358       .  S
C2544      C2545   1.403       .  A
C2544      H2549   1.084       .  S
C2545      C2546   1.410       .  A
C2546      F2547   1.357       .  S
C2551      C2552   1.402       .  A
C2551      C2556   1.392       .  A
C2551      H2558   1.084       .  S
C2552      C2553   1.405       .  A
C2553      C2554   1.405       .  A
C2553      F2560   1.357       .  S
C2554      C2555   1.406       .  A
C2554      H2559   1.083       .  S
C2555      C2556   1.404       .  A
C2556      F2557   1.358       .  S
C2561      C2562   1.404       .  A
C2561      C2566   1.400       .  A
C2561      H2568   1.083       .  S
C2562      C2563   1.405       .  A
C2563      C2564   1.394       .  A
C2563      F2570   1.357       .  S
C2564      C2565   1.401       .  A
C2564      H2569   1.084       .  S
C2565      C2566   1.408       .  A
C2566      F2567   1.357       .  S
C2571      C2572   1.404       .  A
C2571      C2576   1.402       .  A
C2571      H2578   1.083       .  S
C2572      C2573   1.405       .  A
C2573      C2574   1.391       .  A
C2573      F2580   1.357       .  S
C2574      C2575   1.399       .  A
C2574      H2579   1.081       .  S
C2575      C2576   1.408       .  A
C2576      F2577   1.357       .  S
C2581      C2582   1.401       .  A
C2581      C2586   1.394       .  A
C2581      H2588   1.084       .  S
C2582      C2583   1.407       .  A
C2583      C2584   1.399       .  A
C2583      F2590   1.357       .  S
C2584      C2585   1.404       .  A
C2584      H2589   1.083       .  S
C2585      C2586   1.406       .  A
C2586      F2587   1.357       .  S
C2591      C2592   1.401       .  A
C2591      C2596   1.393       .  A
C2591      H2598   1.084       .  S
C2592      C2593   1.406       .  A
C2593      C2594   1.407       .  A
C2593      F2600   1.357       .  S
C2594      C2595   1.406       .  A
C2594      H2599   1.083       .  S
C2595      C2596   1.404       .  A
C2596      F2597   1.358       .  S
C2601      C2602   1.401       .  A
C2601      C2606   1.394       .  A
C2601      H2608   1.084       .  S
C2602      C2603   1.411       .  A
C2603      C2604   1.401       .  A
C2603      F2610   1.357       .  S
C2604      C2605   1.401       .  A
C2604      H2609   1.082       .  S
C2605      C2606   1.404       .  A
C2606      F2607   1.358       .  S
C2611      C2612   1.406       .  A
C2611      C2616   1.405       .  A
C2611      H2618   1.083       .  S
C2612      C2613   1.405       .  A
C2613      C2614   1.390       .  A
C2613      F2620   1.357       .  S
C2614      C2615   1.400       .  A
C2614      H2619   1.084       .  S
C2615      C2616   1.406       .  A
C2616      F2617   1.356       .  S
C2621      H2622   1.111       .  S
C2621      C2627   1.540       .  S
C2621      C2626   1.541       .  S
C2621      C2625   1.539       .  S
C2623      H2624   1.112       .  S
C2623      C2629   1.536       .  S
C2623      C2628   1.533       .  S
C2623      C2630   1.535       .  S
C2625      C2628   1.371       .  D
C2625      C3089   1.478       .  S
C2626      C2629   1.373       .  D
C2626      C3096   1.486       .  S
C2627      C2630   1.374       .  D
C2627      C3106   1.480       .  S
C2628      C3136   1.482       .  S
C2629      C3119   1.481       .  S
C2630      C3126   1.486       .  S
C2631      H2632   1.111       .  S
C2631      C2637   1.535       .  S
C2631      C2636   1.534       .  S
C2631      C2635   1.532       .  S
C2633      H2634   1.111       .  S
C2633      C2639   1.538       .  S
C2633      C2638   1.536       .  S
C2633      C2640   1.539       .  S
C2635      C2638   1.369       .  D
C2635      C3056   1.482       .  S
C2636      C2639   1.373       .  D
C2636      C3079   1.480       .  S
C2637      C2640   1.375       .  D
C2637      C3069   1.489       .  S
C2638      C3049   1.474       .  S
C2639      C3109   1.480       .  S
C2640      C3036   1.476       .  S
C2641      H2642   1.112       .  S
C2641      C2647   1.540       .  S
C2641      C2646   1.538       .  S
C2641      C2645   1.542       .  S
C2643      H2644   1.111       .  S
C2643      C2649   1.534       .  S
C2643      C2648   1.534       .  S
C2643      C2650   1.538       .  S
C2645      C2648   1.372       .  D
C2645      C2986   1.478       .  S
C2646      C2649   1.370       .  D
C2646      C3046   1.474       .  S
C2647      C2650   1.371       .  D
C2647      C2996   1.479       .  S
C2648      C3006   1.482       .  S
C2649      C3016   1.481       .  S
C2650      C3026   1.488       .  S
C2651      H2652   1.111       .  S
C2651      C2657   1.534       .  S
C2651      C2656   1.528       .  S
C2651      C2655   1.538       .  S
C2653      H2654   1.111       .  S
C2653      C2659   1.540       .  S
C2653      C2658   1.543       .  S
C2653      C2660   1.541       .  S
C2655      C2658   1.379       .  D
C2655      C2976   1.489       .  S
C2656      C2659   1.364       .  D
C2656      C2956   1.472       .  S
C2657      C2660   1.375       .  D
C2657      C2969   1.487       .  S
C2658      C3099   1.489       .  S
C2659      C2999   1.480       .  S
C2660      C2949   1.477       .  S
C2661      H2662   1.111       .  S
C2661      C2667   1.542       .  S
C2661      C2666   1.542       .  S
C2661      C2665   1.537       .  S
C2663      H2664   1.111       .  S
C2663      C2669   1.532       .  S
C2663      C2668   1.532       .  S
C2663      C2670   1.536       .  S
C2665      C2668   1.370       .  D
C2665      C2946   1.478       .  S
C2666      C2669   1.374       .  D
C2666      C2909   1.481       .  S
C2667      C2670   1.375       .  D
C2667      C2896   1.487       .  S
C2668      C2936   1.482       .  S
C2669      C2926   1.487       .  S
C2670      C2916   1.481       .  S
C2671      H2672   1.111       .  S
C2671      C2677   1.534       .  S
C2671      C2676   1.533       .  S
C2671      C2675   1.533       .  S
C2673      H2674   1.111       .  S
C2673      C2679   1.543       .  S
C2673      C2678   1.541       .  S
C2673      C2680   1.540       .  S
C2675      C2678   1.373       .  D
C2675      C2876   1.482       .  S
C2676      C2679   1.374       .  D
C2676      C2869   1.488       .  S
C2677      C2680   1.372       .  D
C2677      C2886   1.486       .  S
C2678      C2906   1.482       .  S
C2679      C2856   1.484       .  S
C2680      C3086   1.478       .  S
C2681      H2682   1.108       .  S
C2681      C2687   1.539       .  S
C2681      C2686   1.540       .  S
C2681      C2685   1.536       .  S
C2683      H2684   1.111       .  S
C2683      C2689   1.543       .  S
C2683      C2688   1.538       .  S
C2683      C2690   1.543       .  S
C2685      C2688   1.371       .  D
C2685      C2839   1.482       .  S
C2686      C2689   1.377       .  D
C2686      C2826   1.489       .  S
C2687      C2690   1.376       .  D
C2687      C2846   1.497       .  S
C2688      C2816   1.479       .  S
C2689      C2899   1.495       .  S
C2690      C2989   1.482       .  S
C2691      H2692   1.111       .  S
C2691      C2697   1.538       .  S
C2691      C2696   1.537       .  S
C2691      C2695   1.539       .  S
C2693      H2694   1.111       .  S
C2693      C2699   1.535       .  S
C2693      C2698   1.533       .  S
C2693      C2700   1.535       .  S
C2695      C2698   1.372       .  D
C2695      C3039   1.475       .  S
C2696      C2699   1.375       .  D
C2696      C2819   1.476       .  S
C2697      C2700   1.373       .  D
C2697      C2859   1.483       .  S
C2698      C2806   1.487       .  S
C2699      C2786   1.492       .  S
C2700      C2796   1.478       .  S
O2701     Cu2709   1.981       .  S
O2701      C2711   1.275       .  A
O2702      C2712   1.275       .  A
O2703      C2713   1.277       .  A
O2704     Cu3757   1.987       .  S
O2704      C2714   1.275       .  A
O2705     Cu3758   2.029       .  S
O2705      C2714   1.280       .  A
O2706      C2713   1.279       .  A
O2707      C2712   1.280       .  A
O2708     Cu2710   2.032       .  S
O2708      C2711   1.280       .  A
Cu2709     O3752   1.989   1_545  S
Cu2709    Cu2710   2.374       .  S
Cu2710     O3753   2.033   1_545  S
C2711      C2849   1.471       .  S
C2712      C2889   1.472       .  S
C2713      C2809   1.473       .  S
C2714      C2939   1.471       .  S
O2715      C2725   1.277       .  A
O2716     Cu3771   1.991       .  S
O2716      C2726   1.276       .  A
O2717     Cu2723   1.989       .  S
O2717      C2727   1.275       .  A
O2718      C2728   1.276       .  A
O2719      C2728   1.279       .  A
O2720     Cu2724   2.027       .  S
O2720      C2727   1.279       .  A
O2721     Cu3772   2.033       .  S
O2721      C2726   1.280       .  A
O2722      C2725   1.279       .  A
Cu2723     O3764   1.984   1_545  S
Cu2723    Cu2724   2.375       .  S
Cu2724     O3769   2.033   1_545  S
C2725      C3066   1.475       .  S
C2726      C2966   1.473       .  S
C2727      C3009   1.471       .  S
C2728      C3139   1.471       .  S
O2729     Cu3261   2.014   1_556  S
O2729      C2739   1.278       .  A
O2730     Cu2737   2.025   1_545  S
O2730      C2740   1.278       .  A
O2731     Cu3785   2.030       .  S
O2731      C2741   1.280       .  A
O2732      C2742   1.281       .  A
O2733      C2742   1.275       .  A
O2734     Cu3786   1.998       .  S
O2734      C2741   1.277       .  A
O2735     Cu2738   1.998       .  S
O2735      C2740   1.276       .  A
O2736     Cu3262   2.011   1_556  S
O2736      C2739   1.279       .  A
Cu2737     O3253   2.018       .  S
Cu2737     O3779   2.033       .  S
Cu2737    Cu2738   2.374   1_565  S
Cu2738     O3782   1.998   1_545  S
Cu2738     O3260   2.015   1_545  S
C2739      C2979   1.477       .  S
C2740      C2836   1.468       .  S
C2741      C2929   1.479       .  S
C2742      C3019   1.475       .  S
O2743      C2753   1.275       .  A
O2744      C2754   1.275       .  A
O2745      C2755   1.275       .  A
O2746     Cu2751   1.997       .  S
O2746      C2756   1.276       .  A
O2747     Cu2752   2.024       .  S
O2747      C2756   1.279       .  A
O2748      C2755   1.279       .  A
O2749      C2754   1.279       .  A
O2750      C2753   1.281       .  A
Cu2751    Cu2752   2.373       .  S
C2753      C3029   1.477       .  S
C2754      C2799   1.468       .  S
C2755      C3076   1.470       .  S
C2756      C2829   1.472       .  S
O2757      C2767   1.279       .  A
O2758     Cu3813   2.022       .  S
O2758      C2768   1.278       .  A
O2759     Cu2765   2.034       .  S
O2759      C2769   1.281       .  A
O2760     Cu3289   2.036   1_556  S
O2760      C2770   1.280       .  A
O2761     Cu3290   1.990   1_556  S
O2761      C2770   1.275       .  A
O2762     Cu2766   1.994       .  S
O2762      C2769   1.276       .  A
O2763     Cu3814   1.984       .  S
O2763      C2768   1.275       .  A
O2764      C2767   1.276       .  A
Cu2765     O3806   2.023   1_545  S
Cu2765     O3284   2.033   1_545  S
Cu2765    Cu2766   2.375       .  S
Cu2766     O3285   1.990   1_545  S
Cu2766     O3811   1.986   1_545  S
C2767      C3059   1.471       .  S
C2768      C2879   1.466       .  S
C2769      C2789   1.478       .  S
C2770      C3116   1.471       .  S
O2771      C2781   1.277       .  A
O2772      C2782   1.278       .  A
O2773      C2783   1.280       .  A
O2774     Cu2779   2.029       .  S
O2774      C2784   1.280       .  A
O2775     Cu2780   1.985       .  S
O2775      C2784   1.275       .  A
O2776      C2783   1.276       .  A
O2777      C2782   1.277       .  A
O2778      C2781   1.276       .  A
Cu2779    Cu2780   2.376       .  S
C2781      C2959   1.464       .  S
C2782      C2866   1.472       .  S
C2783      C3129   1.471       .  S
C2784      C2919   1.473       .  S
C2785      C2786   1.403       .  A
C2785      C2790   1.395       .  A
C2785      H2792   1.084       .  S
C2786      C2787   1.411       .  A
C2787      C2788   1.403       .  A
C2787      F2794   1.356       .  S
C2788      C2789   1.404       .  A
C2788      H2793   1.083       .  S
C2789      C2790   1.406       .  A
C2790      F2791   1.357       .  S
C2795      C2796   1.400       .  A
C2795      C2800   1.387       .  A
C2795      H2802   1.084       .  S
C2796      C2797   1.408       .  A
C2797      C2798   1.405       .  A
C2797      F2804   1.357       .  S
C2798      C2799   1.404       .  A
C2798      H2803   1.083       .  S
C2799      C2800   1.403       .  A
C2800      F2801   1.358       .  S
C2805      C2806   1.402       .  A
C2805      C2810   1.393       .  A
C2805      H2812   1.084       .  S
C2806      C2807   1.411       .  A
C2807      C2808   1.405       .  A
C2807      F2814   1.357       .  S
C2808      C2809   1.404       .  A
C2808      H2813   1.083       .  S
C2809      C2810   1.403       .  A
C2810      F2811   1.358       .  S
C2815      C2816   1.403       .  A
C2815      C2820   1.398       .  A
C2815      H2822   1.084       .  S
C2816      C2817   1.405       .  A
C2817      C2818   1.394       .  A
C2817      F2824   1.352       .  S
C2818      C2819   1.400       .  A
C2818      H2823   1.083       .  S
C2819      C2820   1.405       .  A
C2820      F2821   1.358       .  S
C2825      C2826   1.408       .  A
C2825      C2830   1.403       .  A
C2825      H2832   1.083       .  S
C2826      C2827   1.406       .  A
C2827      C2828   1.394       .  A
C2827      F2834   1.355       .  S
C2828      C2829   1.400       .  A
C2828      H2833   1.084       .  S
C2829      C2830   1.405       .  A
C2830      F2831   1.357       .  S
C2835      C2836   1.399       .  A
C2835      C2840   1.396       .  A
C2835      H2842   1.084       .  S
C2836      C2837   1.405       .  A
C2837      C2838   1.403       .  A
C2837      F2844   1.357       .  S
C2838      C2839   1.403       .  A
C2838      H2843   1.083       .  S
C2839      C2840   1.405       .  A
C2840      F2841   1.357       .  S
C2845      C2846   1.410       .  A
C2845      C2850   1.402       .  A
C2845      H2852   1.081       .  S
C2846      C2847   1.410       .  A
C2847      C2848   1.391       .  A
C2847      F2854   1.352       .  S
C2848      C2849   1.398       .  A
C2848      H2853   1.084       .  S
C2849      C2850   1.403       .  A
C2850      F2851   1.355       .  S
C2855      C2856   1.405       .  A
C2855      C2860   1.401       .  A
C2855      H2862   1.083       .  S
C2856      C2857   1.405       .  A
C2857      C2858   1.396       .  A
C2857      F2864   1.357       .  S
C2858      C2859   1.402       .  A
C2858      H2863   1.084       .  S
C2859      C2860   1.407       .  A
C2860      F2861   1.357       .  S
C2865      C2866   1.400       .  A
C2865      C2870   1.392       .  A
C2865      H2872   1.084       .  S
C2866      C2867   1.405       .  A
C2867      C2868   1.404       .  A
C2867      F2874   1.356       .  S
C2868      C2869   1.408       .  A
C2868      H2873   1.082       .  S
C2869      C2870   1.407       .  A
C2870      F2871   1.357       .  S
C2875      C2876   1.401       .  A
C2875      C2880   1.389       .  A
C2875      H2882   1.084       .  S
C2876      C2877   1.410       .  A
C2877      C2878   1.403       .  A
C2877      F2884   1.356       .  S
C2878      C2879   1.403       .  A
C2878      H2883   1.083       .  S
C2879      C2880   1.402       .  A
C2880      F2881   1.357       .  S
C2885      C2886   1.401       .  A
C2885      C2890   1.389       .  A
C2885      H2892   1.084       .  S
C2886      C2887   1.410       .  A
C2887      C2888   1.407       .  A
C2887      F2894   1.357       .  S
C2888      C2889   1.404       .  A
C2888      H2893   1.082       .  S
C2889      C2890   1.403       .  A
C2890      F2891   1.358       .  S
C2895      C2896   1.405       .  A
C2895      C2900   1.404       .  A
C2895      H2902   1.083       .  S
C2896      C2897   1.404       .  A
C2897      C2898   1.394       .  A
C2897      F2904   1.357       .  S
C2898      C2899   1.402       .  A
C2898      H2903   1.074       .  S
C2899      C2900   1.410       .  A
C2900      F2901   1.357       .  S
C2905      C2906   1.401       .  A
C2905      C2910   1.394       .  A
C2905      H2912   1.083       .  S
C2906      C2907   1.408       .  A
C2907      C2908   1.400       .  A
C2907      F2914   1.357       .  S
C2908      C2909   1.405       .  A
C2908      H2913   1.083       .  S
C2909      C2910   1.404       .  A
C2910      F2911   1.357       .  S
C2915      C2916   1.401       .  A
C2915      C2920   1.390       .  A
C2915      H2922   1.084       .  S
C2916      C2917   1.408       .  A
C2917      C2918   1.404       .  A
C2917      F2924   1.357       .  S
C2918      C2919   1.405       .  A
C2918      H2923   1.083       .  S
C2919      C2920   1.405       .  A
C2920      F2921   1.358       .  S
C2925      C2926   1.402       .  A
C2925      C2930   1.396       .  A
C2925      H2932   1.084       .  S
C2926      C2927   1.409       .  A
C2927      C2928   1.404       .  A
C2927      F2934   1.357       .  S
C2928      C2929   1.405       .  A
C2928      H2933   1.083       .  S
C2929      C2930   1.407       .  A
C2930      F2931   1.358       .  S
C2935      C2936   1.406       .  A
C2935      C2940   1.401       .  A
C2935      H2942   1.083       .  S
C2936      C2937   1.404       .  A
C2937      C2938   1.393       .  A
C2937      F2944   1.358       .  S
C2938      C2939   1.402       .  A
C2938      H2943   1.084       .  S
C2939      C2940   1.405       .  A
C2940      F2941   1.357       .  S
C2945      C2946   1.400       .  A
C2945      C2950   1.395       .  A
C2945      H2952   1.084       .  S
C2946      C2947   1.407       .  A
C2947      C2948   1.399       .  A
C2947      F2954   1.357       .  S
C2948      C2949   1.403       .  A
C2948      H2953   1.083       .  S
C2949      C2950   1.405       .  A
C2950      F2951   1.357       .  S
C2955      C2956   1.400       .  A
C2955      C2960   1.396       .  A
C2955      H2962   1.084       .  S
C2956      C2957   1.405       .  A
C2957      C2958   1.399       .  A
C2957      F2964   1.357       .  S
C2958      C2959   1.401       .  A
C2958      H2963   1.083       .  S
C2959      C2960   1.404       .  A
C2960      F2961   1.357       .  S
C2965      C2966   1.403       .  A
C2965      C2970   1.404       .  A
C2965      H2972   1.082       .  S
C2966      C2967   1.404       .  A
C2967      C2968   1.394       .  A
C2967      F2974   1.358       .  S
C2968      C2969   1.403       .  A
C2968      H2973   1.082       .  S
C2969      C2970   1.409       .  A
C2970      F2971   1.356       .  S
C2975      C2976   1.405       .  A
C2975      C2980   1.396       .  A
C2975      H2982   1.084       .  S
C2976      C2977   1.409       .  A
C2977      C2978   1.401       .  A
C2977      F2984   1.357       .  S
C2978      C2979   1.405       .  A
C2978      H2983   1.083       .  S
C2979      C2980   1.405       .  A
C2980      F2981   1.358       .  S
C2985      C2986   1.404       .  A
C2985      C2990   1.402       .  A
C2985      H2992   1.083       .  S
C2986      C2987   1.401       .  A
C2987      C2988   1.393       .  A
C2987      F2994   1.355       .  S
C2988      C2989   1.399       .  A
C2988      H2993   1.076       .  S
C2989      C2990   1.407       .  A
C2990      F2991   1.357       .  S
C2995      C2996   1.401       .  A
C2995      C3000   1.397       .  A
C2995      H3002   1.081       .  S
C2996      C2997   1.404       .  A
C2997      C2998   1.400       .  A
C2997      F3004   1.357       .  S
C2998      C2999   1.404       .  A
C2998      H3003   1.082       .  S
C2999      C3000   1.403       .  A
C3000      F3001   1.355       .  S
C3005      C3006   1.406       .  A
C3005      C3010   1.403       .  A
C3005      H3012   1.083       .  S
C3006      C3007   1.404       .  A
C3007      C3008   1.393       .  A
C3007      F3014   1.357       .  S
C3008      C3009   1.401       .  A
C3008      H3013   1.084       .  S
C3009      C3010   1.405       .  A
C3010      F3011   1.356       .  S
C3015      C3016   1.399       .  A
C3015      C3020   1.394       .  A
C3015      H3022   1.084       .  S
C3016      C3017   1.408       .  A
C3017      C3018   1.406       .  A
C3017      F3024   1.356       .  S
C3018      C3019   1.404       .  A
C3018      H3023   1.083       .  S
C3019      C3020   1.405       .  A
C3020      F3021   1.358       .  S
C3025      C3026   1.407       .  A
C3025      C3030   1.404       .  A
C3025      H3032   1.082       .  S
C3026      C3027   1.405       .  A
C3027      C3028   1.394       .  A
C3027      F3034   1.357       .  S
C3028      C3029   1.403       .  A
C3028      H3033   1.084       .  S
C3029      C3030   1.406       .  A
C3030      F3031   1.357       .  S
C3035      C3036   1.401       .  A
C3035      C3040   1.392       .  A
C3035      H3042   1.083       .  S
C3036      C3037   1.406       .  A
C3037      C3038   1.398       .  A
C3037      F3044   1.357       .  S
C3038      C3039   1.403       .  A
C3038      H3043   1.083       .  S
C3039      C3040   1.403       .  A
C3040      F3041   1.357       .  S
C3045      C3046   1.401       .  A
C3045      C3050   1.397       .  A
C3045      H3052   1.082       .  S
C3046      C3047   1.404       .  A
C3047      C3048   1.399       .  A
C3047      F3054   1.357       .  S
C3048      C3049   1.401       .  A
C3048      H3053   1.083       .  S
C3049      C3050   1.403       .  A
C3050      F3051   1.358       .  S
C3055      C3056   1.406       .  A
C3055      C3060   1.402       .  A
C3055      H3062   1.081       .  S
C3056      C3057   1.404       .  A
C3057      C3058   1.392       .  A
C3057      F3064   1.357       .  S
C3058      C3059   1.402       .  A
C3058      H3063   1.084       .  S
C3059      C3060   1.405       .  A
C3060      F3061   1.357       .  S
C3065      C3066   1.404       .  A
C3065      C3070   1.402       .  A
C3065      H3072   1.083       .  S
C3066      C3067   1.405       .  A
C3067      C3068   1.395       .  A
C3067      F3074   1.358       .  S
C3068      C3069   1.404       .  A
C3068      H3073   1.084       .  S
C3069      C3070   1.410       .  A
C3070      F3071   1.356       .  S
C3075      C3076   1.401       .  A
C3075      C3080   1.391       .  A
C3075      H3082   1.084       .  S
C3076      C3077   1.406       .  A
C3077      C3078   1.404       .  A
C3077      F3084   1.357       .  S
C3078      C3079   1.406       .  A
C3078      H3083   1.083       .  S
C3079      C3080   1.403       .  A
C3080      F3081   1.358       .  S
C3085      C3086   1.403       .  A
C3085      C3090   1.399       .  A
C3085      H3092   1.083       .  S
C3086      C3087   1.405       .  A
C3087      C3088   1.395       .  A
C3087      F3094   1.358       .  S
C3088      C3089   1.401       .  A
C3088      H3093   1.084       .  S
C3089      C3090   1.406       .  A
C3090      F3091   1.357       .  S
C3095      C3096   1.406       .  A
C3095      C3100   1.403       .  A
C3095      H3102   1.083       .  S
C3096      C3097   1.405       .  A
C3097      C3098   1.393       .  A
C3097      F3104   1.357       .  S
C3098      C3099   1.400       .  A
C3098      H3103   1.078       .  S
C3099      C3100   1.409       .  A
C3100      F3101   1.357       .  S
C3105      C3106   1.402       .  A
C3105      C3110   1.396       .  A
C3105      H3112   1.084       .  S
C3106      C3107   1.406       .  A
C3107      C3108   1.398       .  A
C3107      F3114   1.357       .  S
C3108      C3109   1.403       .  A
C3108      H3113   1.083       .  S
C3109      C3110   1.405       .  A
C3110      F3111   1.358       .  S
C3115      C3116   1.401       .  A
C3115      C3120   1.393       .  A
C3115      H3122   1.084       .  S
C3116      C3117   1.406       .  A
C3117      C3118   1.406       .  A
C3117      F3124   1.357       .  S
C3118      C3119   1.406       .  A
C3118      H3123   1.083       .  S
C3119      C3120   1.403       .  A
C3120      F3121   1.358       .  S
C3125      C3126   1.402       .  A
C3125      C3130   1.396       .  A
C3125      H3132   1.084       .  S
C3126      C3127   1.410       .  A
C3127      C3128   1.402       .  A
C3127      F3134   1.357       .  S
C3128      C3129   1.402       .  A
C3128      H3133   1.083       .  S
C3129      C3130   1.404       .  A
C3130      F3131   1.358       .  S
C3135      C3136   1.406       .  A
C3135      C3140   1.405       .  A
C3135      H3142   1.083       .  S
C3136      C3137   1.404       .  A
C3137      C3138   1.390       .  A
C3137      F3144   1.357       .  S
C3138      C3139   1.400       .  A
C3138      H3143   1.084       .  S
C3139      C3140   1.406       .  A
C3140      F3141   1.356       .  S
C3145      H3146   1.111       .  S
C3145      C3151   1.539       .  S
C3145      C3150   1.539       .  S
C3145      C3149   1.539       .  S
C3147      H3148   1.111       .  S
C3147      C3153   1.536       .  S
C3147      C3152   1.530       .  S
C3147      C3154   1.534       .  S
C3149      C3152   1.371       .  D
C3149      C3613   1.481       .  S
C3150      C3153   1.373       .  D
C3150      C3620   1.483       .  S
C3151      C3154   1.374       .  D
C3151      C3630   1.478       .  S
C3152      C3660   1.479       .  S
C3153      C3643   1.482       .  S
C3154      C3650   1.488       .  S
C3155      H3156   1.111       .  S
C3155      C3161   1.534       .  S
C3155      C3160   1.535       .  S
C3155      C3159   1.532       .  S
C3157      H3158   1.111       .  S
C3157      C3163   1.539       .  S
C3157      C3162   1.533       .  S
C3157      C3164   1.539       .  S
C3159      C3162   1.367       .  D
C3159      C3580   1.479       .  S
C3160      C3163   1.375       .  D
C3160      C3603   1.486       .  S
C3161      C3164   1.375       .  D
C3161      C3593   1.485       .  S
C3162      C3573   1.471       .  S
C3163      C3633   1.478       .  S
C3164      C3560   1.481       .  S
C3165      H3166   1.112       .  S
C3165      C3171   1.539       .  S
C3165      C3170   1.537       .  S
C3165      C3169   1.539       .  S
C3167      H3168   1.112       .  S
C3167      C3173   1.532       .  S
C3167      C3172   1.533       .  S
C3167      C3174   1.536       .  S
C3169      C3172   1.371       .  D
C3169      C3510   1.473       .  S
C3170      C3173   1.369       .  D
C3170      C3570   1.473       .  S
C3171      C3174   1.370       .  D
C3171      C3520   1.476       .  S
C3172      C3530   1.479       .  S
C3173      C3540   1.478       .  S
C3174      C3550   1.485       .  S
C3175      H3176   1.111       .  S
C3175      C3181   1.535       .  S
C3175      C3180   1.531       .  S
C3175      C3179   1.539       .  S
C3177      H3178   1.111       .  S
C3177      C3183   1.537       .  S
C3177      C3182   1.540       .  S
C3177      C3184   1.538       .  S
C3179      C3182   1.378       .  D
C3179      C3500   1.489       .  S
C3180      C3183   1.364       .  D
C3180      C3480   1.473       .  S
C3181      C3184   1.375       .  D
C3181      C3493   1.484       .  S
C3182      C3623   1.485       .  S
C3183      C3523   1.477       .  S
C3184      C3473   1.477       .  S
C3185      H3186   1.111       .  S
C3185      C3191   1.543       .  S
C3185      C3190   1.543       .  S
C3185      C3189   1.542       .  S
C3187      H3188   1.111       .  S
C3187      C3193   1.530       .  S
C3187      C3192   1.529       .  S
C3187      C3194   1.537       .  S
C3189      C3192   1.370       .  D
C3189      C3470   1.476       .  S
C3190      C3193   1.373       .  D
C3190      C3433   1.481       .  S
C3191      C3194   1.375       .  D
C3191      C3420   1.491       .  S
C3192      C3460   1.487       .  S
C3193      C3450   1.484       .  S
C3194      C3440   1.478       .  S
C3195      H3196   1.111       .  S
C3195      C3201   1.534       .  S
C3195      C3200   1.532       .  S
C3195      C3199   1.537       .  S
C3197      H3198   1.111       .  S
C3197      C3203   1.542       .  S
C3197      C3202   1.541       .  S
C3197      C3204   1.539       .  S
C3199      C3202   1.376       .  D
C3199      C3400   1.488       .  S
C3200      C3203   1.373       .  D
C3200      C3393   1.486       .  S
C3201      C3204   1.372       .  D
C3201      C3410   1.484       .  S
C3202      C3430   1.482       .  S
C3203      C3380   1.482       .  S
C3204      C3610   1.480       .  S
C3205      H3206   1.108       .  S
C3205      C3211   1.538       .  S
C3205      C3210   1.543       .  S
C3205      C3209   1.535       .  S
C3207      H3208   1.111       .  S
C3207      C3213   1.540       .  S
C3207      C3212   1.537       .  S
C3207      C3214   1.542       .  S
C3209      C3212   1.369       .  D
C3209      C3363   1.480       .  S
C3210      C3213   1.378       .  D
C3210      C3350   1.486       .  S
C3211      C3214   1.375       .  D
C3211      C3370   1.500       .  S
C3212      C3340   1.477       .  S
C3213      C3423   1.497       .  S
C3214      C3513   1.474       .  S
C3215      H3216   1.111       .  S
C3215      C3221   1.537       .  S
C3215      C3220   1.537       .  S
C3215      C3219   1.538       .  S
C3217      H3218   1.111       .  S
C3217      C3223   1.534       .  S
C3217      C3222   1.537       .  S
C3217      C3224   1.536       .  S
C3219      C3222   1.373       .  D
C3219      C3563   1.481       .  S
C3220      C3223   1.373       .  D
C3220      C3343   1.474       .  S
C3221      C3224   1.373       .  D
C3221      C3383   1.480       .  S
C3222      C3330   1.485       .  S
C3223      C3310   1.491       .  S
C3224      C3320   1.481       .  S
O3225     Cu3233   1.984       .  S
O3225      C3235   1.275       .  A
O3226      C3236   1.275       .  A
O3227      C3237   1.277       .  A
O3228      C3238   1.275       .  A
O3229      C3238   1.281       .  A
O3230      C3237   1.278       .  A
O3231      C3236   1.280       .  A
O3232     Cu3234   2.036       .  S
O3232      C3235   1.281       .  A
Cu3233    Cu3234   2.373       .  S
C3235      C3373   1.474       .  S
C3236      C3413   1.471       .  S
C3237      C3333   1.472       .  S
C3238      C3463   1.475       .  S
O3239      C3249   1.277       .  A
O3240      C3250   1.275       .  A
O3241     Cu3247   1.991       .  S
O3241      C3251   1.276       .  A
O3242      C3252   1.276       .  A
O3243      C3252   1.278       .  A
O3244     Cu3248   2.022       .  S
O3244      C3251   1.279       .  A
O3245      C3250   1.280       .  A
O3246      C3249   1.278       .  A
Cu3247    Cu3248   2.375       .  S
C3249      C3590   1.474       .  S
C3250      C3490   1.470       .  S
C3251      C3533   1.469       .  S
C3252      C3663   1.469       .  S
O3253      C3263   1.278       .  A
O3254     Cu3261   2.023       .  S
O3254      C3264   1.277       .  A
O3255      C3265   1.280       .  A
O3256     Cu3785   2.034       .  S
O3256      C3266   1.280       .  A
O3257     Cu3786   1.988       .  S
O3257      C3266   1.275       .  A
O3258      C3265   1.276       .  A
O3259     Cu3262   1.996       .  S
O3259      C3264   1.276       .  A
O3260      C3263   1.279       .  A
Cu3261     O3780   2.033   1_554  S
Cu3261    Cu3262   2.374       .  S
Cu3262     O3781   1.988   1_554  S
C3263      C3503   1.479       .  S
C3264      C3360   1.466       .  S
C3265      C3453   1.478       .  S
C3266      C3543   1.471       .  S
O3267     Cu3799   1.990       .  S
O3267      C3277   1.275       .  A
O3268      C3278   1.275       .  A
O3269      C3279   1.276       .  A
O3270     Cu3275   1.993       .  S
O3270      C3280   1.276       .  A
O3271     Cu3276   2.022       .  S
O3271      C3280   1.279       .  A
O3272      C3279   1.280       .  A
O3273      C3278   1.279       .  A
O3274     Cu3800   2.033       .  S
O3274      C3277   1.280       .  A
Cu3275     O3791   1.985   1_554  S
Cu3275    Cu3276   2.374       .  S
Cu3276     O3798   2.033   1_554  S
C3277      C3553   1.475       .  S
C3278      C3323   1.471       .  S
C3279      C3600   1.475       .  S
C3280      C3353   1.469       .  S
O3281     Cu3813   2.022       .  S
O3281      C3291   1.278       .  A
O3282      C3292   1.279       .  A
O3283     Cu3289   2.037       .  S
O3283      C3293   1.281       .  A
O3284      C3294   1.279       .  A
O3285      C3294   1.276       .  A
O3286     Cu3290   1.994       .  S
O3286      C3293   1.276       .  A
O3287      C3292   1.276       .  A
O3288     Cu3814   1.982       .  S
O3288      C3291   1.276       .  A
Cu3289     O3805   2.029   1_554  S
Cu3289    Cu3290   2.374       .  S
Cu3290     O3812   1.991   1_554  S
C3291      C3583   1.468       .  S
C3292      C3403   1.470       .  S
C3293      C3313   1.478       .  S
C3294      C3640   1.472       .  S
O3295     Cu3827   2.020       .  S
O3295      C3305   1.277       .  A
O3296      C3306   1.278       .  A
O3297      C3307   1.280       .  A
O3298     Cu3303   2.024       .  S
O3298      C3308   1.279       .  A
O3299     Cu3304   1.983       .  S
O3299      C3308   1.275       .  A
O3300      C3307   1.275       .  A
O3301      C3306   1.276       .  A
O3302     Cu3828   1.994       .  S
O3302      C3305   1.276       .  A
Cu3303     O3819   2.025   1_554  S
Cu3303    Cu3304   2.376       .  S
Cu3304     O3826   1.996   1_554  S
C3305      C3483   1.464       .  S
C3306      C3390   1.470       .  S
C3307      C3653   1.471       .  S
C3308      C3443   1.470       .  S
C3309      C3310   1.402       .  A
C3309      C3314   1.396       .  A
C3309      H3316   1.084       .  S
C3310      C3311   1.411       .  A
C3311      C3312   1.404       .  A
C3311      F3318   1.356       .  S
C3312      C3313   1.403       .  A
C3312      H3317   1.083       .  S
C3313      C3314   1.406       .  A
C3314      F3315   1.357       .  S
C3319      C3320   1.400       .  A
C3319      C3324   1.388       .  A
C3319      H3326   1.084       .  S
C3320      C3321   1.409       .  A
C3321      C3322   1.406       .  A
C3321      F3328   1.357       .  S
C3322      C3323   1.405       .  A
C3322      H3327   1.083       .  S
C3323      C3324   1.404       .  A
C3324      F3325   1.358       .  S
C3329      C3330   1.401       .  A
C3329      C3334   1.392       .  A
C3329      H3336   1.084       .  S
C3330      C3331   1.411       .  A
C3331      C3332   1.405       .  A
C3331      F3338   1.357       .  S
C3332      C3333   1.404       .  A
C3332      H3337   1.083       .  S
C3333      C3334   1.403       .  A
C3334      F3335   1.358       .  S
C3339      C3340   1.403       .  A
C3339      C3344   1.397       .  A
C3339      H3346   1.084       .  S
C3340      C3341   1.405       .  A
C3341      C3342   1.395       .  A
C3341      F3348   1.353       .  S
C3342      C3343   1.400       .  A
C3342      H3347   1.083       .  S
C3343      C3344   1.404       .  A
C3344      F3345   1.358       .  S
C3349      C3350   1.407       .  A
C3349      C3354   1.401       .  A
C3349      H3356   1.083       .  S
C3350      C3351   1.406       .  A
C3351      C3352   1.394       .  A
C3351      F3358   1.356       .  S
C3352      C3353   1.400       .  A
C3352      H3357   1.084       .  S
C3353      C3354   1.404       .  A
C3354      F3355   1.357       .  S
C3359      C3360   1.399       .  A
C3359      C3364   1.397       .  A
C3359      H3366   1.084       .  S
C3360      C3361   1.404       .  A
C3361      C3362   1.402       .  A
C3361      F3368   1.357       .  S
C3362      C3363   1.402       .  A
C3362      H3367   1.083       .  S
C3363      C3364   1.405       .  A
C3364      F3365   1.357       .  S
C3369      C3370   1.411       .  A
C3369      C3374   1.404       .  A
C3369      H3376   1.081       .  S
C3370      C3371   1.410       .  A
C3371      C3372   1.392       .  A
C3371      F3378   1.351       .  S
C3372      C3373   1.399       .  A
C3372      H3377   1.084       .  S
C3373      C3374   1.403       .  A
C3374      F3375   1.355       .  S
C3379      C3380   1.405       .  A
C3379      C3384   1.401       .  A
C3379      H3386   1.083       .  S
C3380      C3381   1.405       .  A
C3381      C3382   1.395       .  A
C3381      F3388   1.357       .  S
C3382      C3383   1.402       .  A
C3382      H3387   1.084       .  S
C3383      C3384   1.406       .  A
C3384      F3385   1.357       .  S
C3389      C3390   1.400       .  A
C3389      C3394   1.392       .  A
C3389      H3396   1.084       .  S
C3390      C3391   1.405       .  A
C3391      C3392   1.403       .  A
C3391      F3398   1.356       .  S
C3392      C3393   1.407       .  A
C3392      H3397   1.083       .  S
C3393      C3394   1.406       .  A
C3394      F3395   1.357       .  S
C3399      C3400   1.402       .  A
C3399      C3404   1.390       .  A
C3399      H3406   1.084       .  S
C3400      C3401   1.412       .  A
C3401      C3402   1.406       .  A
C3401      F3408   1.356       .  S
C3402      C3403   1.404       .  A
C3402      H3407   1.083       .  S
C3403      C3404   1.402       .  A
C3404      F3405   1.357       .  S
C3409      C3410   1.401       .  A
C3409      C3414   1.391       .  A
C3409      H3416   1.084       .  S
C3410      C3411   1.409       .  A
C3411      C3412   1.406       .  A
C3411      F3418   1.357       .  S
C3412      C3413   1.404       .  A
C3412      H3417   1.082       .  S
C3413      C3414   1.403       .  A
C3414      F3415   1.358       .  S
C3419      C3420   1.407       .  A
C3419      C3424   1.404       .  A
C3419      H3426   1.083       .  S
C3420      C3421   1.404       .  A
C3421      C3422   1.396       .  A
C3421      F3428   1.357       .  S
C3422      C3423   1.403       .  A
C3422      H3427   1.076       .  S
C3423      C3424   1.410       .  A
C3424      F3425   1.357       .  S
C3429      C3430   1.403       .  A
C3429      C3434   1.395       .  A
C3429      H3436   1.084       .  S
C3430      C3431   1.407       .  A
C3431      C3432   1.400       .  A
C3431      F3438   1.357       .  S
C3432      C3433   1.404       .  A
C3432      H3437   1.083       .  S
C3433      C3434   1.404       .  A
C3434      F3435   1.357       .  S
C3439      C3440   1.400       .  A
C3439      C3444   1.388       .  A
C3439      H3446   1.084       .  S
C3440      C3441   1.408       .  A
C3441      C3442   1.403       .  A
C3441      F3448   1.357       .  S
C3442      C3443   1.404       .  A
C3442      H3447   1.083       .  S
C3443      C3444   1.404       .  A
C3444      F3445   1.357       .  S
C3449      C3450   1.402       .  A
C3449      C3454   1.395       .  A
C3449      H3456   1.084       .  S
C3450      C3451   1.408       .  A
C3451      C3452   1.404       .  A
C3451      F3458   1.357       .  S
C3452      C3453   1.405       .  A
C3452      H3457   1.083       .  S
C3453      C3454   1.407       .  A
C3454      F3455   1.358       .  S
C3459      C3460   1.407       .  A
C3459      C3464   1.403       .  A
C3459      H3466   1.083       .  S
C3460      C3461   1.404       .  A
C3461      C3462   1.395       .  A
C3461      F3468   1.358       .  S
C3462      C3463   1.403       .  A
C3462      H3467   1.084       .  S
C3463      C3464   1.406       .  A
C3464      F3465   1.357       .  S
C3469      C3470   1.400       .  A
C3469      C3474   1.395       .  A
C3469      H3476   1.084       .  S
C3470      C3471   1.407       .  A
C3471      C3472   1.398       .  A
C3471      F3478   1.357       .  S
C3472      C3473   1.402       .  A
C3472      H3477   1.083       .  S
C3473      C3474   1.405       .  A
C3474      F3475   1.357       .  S
C3479      C3480   1.400       .  A
C3479      C3484   1.397       .  A
C3479      H3486   1.084       .  S
C3480      C3481   1.404       .  A
C3481      C3482   1.399       .  A
C3481      F3488   1.357       .  S
C3482      C3483   1.401       .  A
C3482      H3487   1.083       .  S
C3483      C3484   1.404       .  A
C3484      F3485   1.357       .  S
C3489      C3490   1.402       .  A
C3489      C3494   1.402       .  A
C3489      H3496   1.083       .  S
C3490      C3491   1.404       .  A
C3491      C3492   1.394       .  A
C3491      F3498   1.358       .  S
C3492      C3493   1.402       .  A
C3492      H3497   1.082       .  S
C3493      C3494   1.409       .  A
C3494      F3495   1.356       .  S
C3499      C3500   1.405       .  A
C3499      C3504   1.398       .  A
C3499      H3506   1.084       .  S
C3500      C3501   1.408       .  A
C3501      C3502   1.401       .  A
C3501      F3508   1.357       .  S
C3502      C3503   1.405       .  A
C3502      H3507   1.083       .  S
C3503      C3504   1.406       .  A
C3504      F3505   1.358       .  S
C3509      C3510   1.403       .  A
C3509      C3514   1.400       .  A
C3509      H3516   1.083       .  S
C3510      C3511   1.401       .  A
C3511      C3512   1.392       .  A
C3511      F3518   1.355       .  S
C3512      C3513   1.399       .  A
C3512      H3517   1.079       .  S
C3513      C3514   1.405       .  A
C3514      F3515   1.357       .  S
C3519      C3520   1.400       .  A
C3519      C3524   1.396       .  A
C3519      H3526   1.080       .  S
C3520      C3521   1.404       .  A
C3521      C3522   1.400       .  A
C3521      F3528   1.357       .  S
C3522      C3523   1.403       .  A
C3522      H3527   1.083       .  S
C3523      C3524   1.401       .  A
C3524      F3525   1.354       .  S
C3529      C3530   1.405       .  A
C3529      C3534   1.402       .  A
C3529      H3536   1.083       .  S
C3530      C3531   1.404       .  A
C3531      C3532   1.393       .  A
C3531      F3538   1.357       .  S
C3532      C3533   1.401       .  A
C3532      H3537   1.084       .  S
C3533      C3534   1.405       .  A
C3534      F3535   1.357       .  S
C3539      C3540   1.400       .  A
C3539      C3544   1.395       .  A
C3539      H3546   1.084       .  S
C3540      C3541   1.407       .  A
C3541      C3542   1.403       .  A
C3541      F3548   1.356       .  S
C3542      C3543   1.403       .  A
C3542      H3547   1.083       .  S
C3543      C3544   1.405       .  A
C3544      F3545   1.358       .  S
C3549      C3550   1.406       .  A
C3549      C3554   1.402       .  A
C3549      H3556   1.082       .  S
C3550      C3551   1.404       .  A
C3551      C3552   1.395       .  A
C3551      F3558   1.358       .  S
C3552      C3553   1.404       .  A
C3552      H3557   1.084       .  S
C3553      C3554   1.405       .  A
C3554      F3555   1.357       .  S
C3559      C3560   1.401       .  A
C3559      C3564   1.393       .  A
C3559      H3566   1.083       .  S
C3560      C3561   1.407       .  A
C3561      C3562   1.400       .  A
C3561      F3568   1.357       .  S
C3562      C3563   1.404       .  A
C3562      H3567   1.083       .  S
C3563      C3564   1.404       .  A
C3564      F3565   1.357       .  S
C3569      C3570   1.400       .  A
C3569      C3574   1.396       .  A
C3569      H3576   1.081       .  S
C3570      C3571   1.404       .  A
C3571      C3572   1.399       .  A
C3571      F3578   1.357       .  S
C3572      C3573   1.401       .  A
C3572      H3577   1.083       .  S
C3573      C3574   1.402       .  A
C3574      F3575   1.357       .  S
C3579      C3580   1.406       .  A
C3579      C3584   1.402       .  A
C3579      H3586   1.081       .  S
C3580      C3581   1.402       .  A
C3581      C3582   1.389       .  A
C3581      F3588   1.357       .  S
C3582      C3583   1.401       .  A
C3582      H3587   1.084       .  S
C3583      C3584   1.405       .  A
C3584      F3585   1.357       .  S
C3589      C3590   1.404       .  A
C3589      C3594   1.401       .  A
C3589      H3596   1.083       .  S
C3590      C3591   1.405       .  A
C3591      C3592   1.395       .  A
C3591      F3598   1.358       .  S
C3592      C3593   1.403       .  A
C3592      H3597   1.084       .  S
C3593      C3594   1.409       .  A
C3594      F3595   1.357       .  S
C3599      C3600   1.402       .  A
C3599      C3604   1.393       .  A
C3599      H3606   1.084       .  S
C3600      C3601   1.406       .  A
C3601      C3602   1.406       .  A
C3601      F3608   1.356       .  S
C3602      C3603   1.407       .  A
C3602      H3607   1.083       .  S
C3603      C3604   1.405       .  A
C3604      F3605   1.358       .  S
C3609      C3610   1.403       .  A
C3609      C3614   1.399       .  A
C3609      H3616   1.083       .  S
C3610      C3611   1.405       .  A
C3611      C3612   1.394       .  A
C3611      F3618   1.357       .  S
C3612      C3613   1.401       .  A
C3612      H3617   1.084       .  S
C3613      C3614   1.407       .  A
C3614      F3615   1.357       .  S
C3619      C3620   1.406       .  A
C3619      C3624   1.403       .  A
C3619      H3626   1.083       .  S
C3620      C3621   1.405       .  A
C3621      C3622   1.390       .  A
C3621      F3628   1.357       .  S
C3622      C3623   1.398       .  A
C3622      H3627   1.077       .  S
C3623      C3624   1.409       .  A
C3624      F3625   1.357       .  S
C3629      C3630   1.400       .  A
C3629      C3634   1.392       .  A
C3629      H3636   1.084       .  S
C3630      C3631   1.407       .  A
C3631      C3632   1.398       .  A
C3631      F3638   1.357       .  S
C3632      C3633   1.403       .  A
C3632      H3637   1.083       .  S
C3633      C3634   1.406       .  A
C3634      F3635   1.358       .  S
C3639      C3640   1.401       .  A
C3639      C3644   1.392       .  A
C3639      H3646   1.084       .  S
C3640      C3641   1.406       .  A
C3641      C3642   1.406       .  A
C3641      F3648   1.357       .  S
C3642      C3643   1.407       .  A
C3642      H3647   1.083       .  S
C3643      C3644   1.404       .  A
C3644      F3645   1.358       .  S
C3649      C3650   1.402       .  A
C3649      C3654   1.394       .  A
C3649      H3656   1.084       .  S
C3650      C3651   1.411       .  A
C3651      C3652   1.401       .  A
C3651      F3658   1.356       .  S
C3652      C3653   1.401       .  A
C3652      H3657   1.082       .  S
C3653      C3654   1.404       .  A
C3654      F3655   1.358       .  S
C3659      C3660   1.405       .  A
C3659      C3664   1.403       .  A
C3659      H3666   1.083       .  S
C3660      C3661   1.404       .  A
C3661      C3662   1.389       .  A
C3661      F3668   1.357       .  S
C3662      C3663   1.400       .  A
C3662      H3667   1.084       .  S
C3663      C3664   1.406       .  A
C3664      F3665   1.356       .  S
C3669      H3670   1.111       .  S
C3669      C3675   1.537       .  S
C3669      C3674   1.539       .  S
C3669      C3673   1.542       .  S
C3671      H3672   1.112       .  S
C3671      C3677   1.537       .  S
C3671      C3676   1.533       .  S
C3671      C3678   1.536       .  S
C3673      C3676   1.374       .  D
C3673      C4137   1.479       .  S
C3674      C3677   1.373       .  D
C3674      C4144   1.483       .  S
C3675      C3678   1.373       .  D
C3675      C4154   1.481       .  S
C3676      C4184   1.487       .  S
C3677      C4167   1.482       .  S
C3678      C4174   1.484       .  S
C3679      H3680   1.111       .  S
C3679      C3685   1.536       .  S
C3679      C3684   1.537       .  S
C3679      C3683   1.534       .  S
C3681      H3682   1.111       .  S
C3681      C3687   1.537       .  S
C3681      C3686   1.535       .  S
C3681      C3688   1.539       .  S
C3683      C3686   1.370       .  D
C3683      C4104   1.487       .  S
C3684      C3687   1.373       .  D
C3684      C4127   1.483       .  S
C3685      C3688   1.376       .  D
C3685      C4117   1.489       .  S
C3686      C4097   1.472       .  S
C3687      C4157   1.480       .  S
C3688      C4084   1.480       .  S
C3689      H3690   1.111       .  S
C3689      C3695   1.538       .  S
C3689      C3694   1.535       .  S
C3689      C3693   1.544       .  S
C3691      H3692   1.112       .  S
C3691      C3697   1.533       .  S
C3691      C3696   1.536       .  S
C3691      C3698   1.537       .  S
C3693      C3696   1.376       .  D
C3693      C4034   1.483       .  S
C3694      C3697   1.369       .  D
C3694      C4094   1.472       .  S
C3695      C3698   1.370       .  D
C3695      C4044   1.478       .  S
C3696      C4054   1.485       .  S
C3697      C4064   1.480       .  S
C3698      C4074   1.485       .  S
C3699      H3700   1.112       .  S
C3699      C3705   1.534       .  S
C3699      C3704   1.531       .  S
C3699      C3703   1.534       .  S
C3701      H3702   1.111       .  S
C3701      C3707   1.541       .  S
C3701      C3706   1.543       .  S
C3701      C3708   1.540       .  S
C3703      C3706   1.375       .  D
C3703      C4024   1.486       .  S
C3704      C3707   1.369       .  D
C3704      C4004   1.478       .  S
C3705      C3708   1.374       .  D
C3705      C4017   1.483       .  S
C3706      C4147   1.485       .  S
C3707      C4047   1.479       .  S
C3708      C3997   1.478       .  S
C3709      H3710   1.111       .  S
C3709      C3715   1.538       .  S
C3709      C3714   1.544       .  S
C3709      C3713   1.539       .  S
C3711      H3712   1.111       .  S
C3711      C3717   1.533       .  S
C3711      C3716   1.533       .  S
C3711      C3718   1.535       .  S
C3713      C3716   1.371       .  D
C3713      C3994   1.478       .  S
C3714      C3717   1.376       .  D
C3714      C3957   1.479       .  S
C3715      C3718   1.371       .  D
C3715      C3944   1.482       .  S
C3716      C3984   1.484       .  S
C3717      C3974   1.491       .  S
C3718      C3964   1.478       .  S
C3719      H3720   1.111       .  S
C3719      C3725   1.535       .  S
C3719      C3724   1.532       .  S
C3719      C3723   1.532       .  S
C3721      H3722   1.112       .  S
C3721      C3727   1.542       .  S
C3721      C3726   1.539       .  S
C3721      C3728   1.540       .  S
C3723      C3726   1.372       .  D
C3723      C3924   1.481       .  S
C3724      C3727   1.373       .  D
C3724      C3917   1.488       .  S
C3725      C3728   1.373       .  D
C3725      C3934   1.486       .  S
C3726      C3954   1.481       .  S
C3727      C3904   1.479       .  S
C3728      C4134   1.480       .  S
C3729      H3730   1.108       .  S
C3729      C3735   1.540       .  S
C3729      C3734   1.539       .  S
C3729      C3733   1.535       .  S
C3731      H3732   1.111       .  S
C3731      C3737   1.541       .  S
C3731      C3736   1.539       .  S
C3731      C3738   1.544       .  S
C3733      C3736   1.371       .  D
C3733      C3887   1.482       .  S
C3734      C3737   1.372       .  D
C3734      C3874   1.488       .  S
C3735      C3738   1.379       .  D
C3735      C3894   1.497       .  S
C3736      C3864   1.479       .  S
C3737      C3947   1.487       .  S
C3738      C4037   1.487       .  S
C3739      H3740   1.111       .  S
C3739      C3745   1.538       .  S
C3739      C3744   1.536       .  S
C3739      C3743   1.540       .  S
C3741      H3742   1.111       .  S
C3741      C3747   1.533       .  S
C3741      C3746   1.534       .  S
C3741      C3748   1.533       .  S
C3743      C3746   1.373       .  D
C3743      C4087   1.478       .  S
C3744      C3747   1.373       .  D
C3744      C3867   1.477       .  S
C3745      C3748   1.372       .  D
C3745      C3907   1.477       .  S
C3746      C3854   1.487       .  S
C3747      C3834   1.486       .  S
C3748      C3844   1.480       .  S
O3749     Cu3757   1.979       .  S
O3749      C3759   1.274       .  A
O3750      C3760   1.275       .  A
O3751      C3761   1.277       .  A
O3752      C3762   1.276       .  A
O3753      C3762   1.280       .  A
O3754      C3761   1.279       .  A
O3755      C3760   1.281       .  A
O3756     Cu3758   2.038       .  S
O3756      C3759   1.281       .  A
Cu3757    Cu3758   2.374       .  S
C3759      C3897   1.473       .  S
C3760      C3937   1.474       .  S
C3761      C3857   1.474       .  S
C3762      C3987   1.474       .  S
O3763      C3773   1.277       .  A
O3764      C3774   1.275       .  A
O3765     Cu3771   1.994       .  S
O3765      C3775   1.276       .  A
O3766      C3776   1.277       .  A
O3767      C3776   1.279       .  A
O3768     Cu3772   2.026       .  S
O3768      C3775   1.279       .  A
O3769      C3774   1.280       .  A
O3770      C3773   1.279       .  A
Cu3771    Cu3772   2.374       .  S
C3773      C4114   1.474       .  S
C3774      C4014   1.470       .  S
C3775      C4057   1.473       .  S
C3776      C4187   1.475       .  S
O3777      C3787   1.278       .  A
O3778     Cu3785   2.025       .  S
O3778      C3788   1.278       .  A
O3779      C3789   1.280       .  A
O3780      C3790   1.280       .  A
O3781      C3790   1.275       .  A
O3782      C3789   1.277       .  A
O3783     Cu3786   1.998       .  S
O3783      C3788   1.276       .  A
O3784      C3787   1.278       .  A
Cu3785    Cu3786   2.374       .  S
C3787      C4027   1.475       .  S
C3788      C3884   1.467       .  S
C3789      C3977   1.482       .  S
C3790      C4067   1.472       .  S
O3791      C3801   1.275       .  A
O3792      C3802   1.275       .  A
O3793      C3803   1.275       .  A
O3794     Cu3799   1.996       .  S
O3794      C3804   1.276       .  A
O3795     Cu3800   2.017       .  S
O3795      C3804   1.278       .  A
O3796      C3803   1.280       .  A
O3797      C3802   1.279       .  A
O3798      C3801   1.280       .  A
Cu3799    Cu3800   2.373       .  S
C3801      C4077   1.474       .  S
C3802      C3847   1.470       .  S
C3803      C4124   1.473       .  S
C3804      C3877   1.469       .  S
O3805      C3815   1.279       .  A
O3806      C3816   1.278       .  A
O3807     Cu3813   2.030       .  S
O3807      C3817   1.280       .  A
O3808      C3818   1.280       .  A
O3809      C3818   1.276       .  A
O3810     Cu3814   1.992       .  S
O3810      C3817   1.276       .  A
O3811      C3816   1.275       .  A
O3812      C3815   1.276       .  A
Cu3813    Cu3814   2.376       .  S
C3815      C4107   1.475       .  S
C3816      C3927   1.466       .  S
C3817      C3837   1.473       .  S
C3818      C4164   1.473       .  S
O3819      C3829   1.278       .  A
O3820      C3830   1.279       .  A
O3821      C3831   1.280       .  A
O3822     Cu3827   2.021       .  S
O3822      C3832   1.279       .  A
O3823     Cu3828   1.985       .  S
O3823      C3832   1.276       .  A
O3824      C3831   1.275       .  A
O3825      C3830   1.277       .  A
O3826      C3829   1.276       .  A
Cu3827    Cu3828   2.378       .  S
C3829      C4007   1.470       .  S
C3830      C3914   1.472       .  S
C3831      C4177   1.469       .  S
C3832      C3967   1.469       .  S
C3833      C3834   1.401       .  A
C3833      C3838   1.393       .  A
C3833      H3840   1.084       .  S
C3834      C3835   1.410       .  A
C3835      C3836   1.402       .  A
C3835      F3842   1.356       .  S
C3836      C3837   1.403       .  A
C3836      H3841   1.083       .  S
C3837      C3838   1.405       .  A
C3838      F3839   1.357       .  S
C3843      C3844   1.400       .  A
C3843      C3848   1.388       .  A
C3843      H3850   1.084       .  S
C3844      C3845   1.409       .  A
C3845      C3846   1.406       .  A
C3845      F3852   1.357       .  S
C3846      C3847   1.405       .  A
C3846      H3851   1.083       .  S
C3847      C3848   1.403       .  A
C3848      F3849   1.358       .  S
C3853      C3854   1.402       .  A
C3853      C3858   1.394       .  A
C3853      H3860   1.084       .  S
C3854      C3855   1.410       .  A
C3855      C3856   1.405       .  A
C3855      F3862   1.357       .  S
C3856      C3857   1.405       .  A
C3856      H3861   1.083       .  S
C3857      C3858   1.403       .  A
C3858      F3859   1.358       .  S
C3863      C3864   1.403       .  A
C3863      C3868   1.399       .  A
C3863      H3870   1.084       .  S
C3864      C3865   1.405       .  A
C3865      C3866   1.394       .  A
C3865      F3872   1.353       .  S
C3866      C3867   1.400       .  A
C3866      H3871   1.083       .  S
C3867      C3868   1.405       .  A
C3868      F3869   1.357       .  S
C3873      C3874   1.407       .  A
C3873      C3878   1.401       .  A
C3873      H3880   1.082       .  S
C3874      C3875   1.407       .  A
C3875      C3876   1.393       .  A
C3875      F3882   1.354       .  S
C3876      C3877   1.399       .  A
C3876      H3881   1.084       .  S
C3877      C3878   1.404       .  A
C3878      F3879   1.357       .  S
C3883      C3884   1.400       .  A
C3883      C3888   1.397       .  A
C3883      H3890   1.084       .  S
C3884      C3885   1.404       .  A
C3885      C3886   1.402       .  A
C3885      F3892   1.357       .  S
C3886      C3887   1.403       .  A
C3886      H3891   1.083       .  S
C3887      C3888   1.405       .  A
C3888      F3889   1.356       .  S
C3893      C3894   1.411       .  A
C3893      C3898   1.404       .  A
C3893      H3900   1.082       .  S
C3894      C3895   1.409       .  A
C3895      C3896   1.391       .  A
C3895      F3902   1.352       .  S
C3896      C3897   1.399       .  A
C3896      H3901   1.084       .  S
C3897      C3898   1.403       .  A
C3898      F3899   1.355       .  S
C3903      C3904   1.404       .  A
C3903      C3908   1.400       .  A
C3903      H3910   1.083       .  S
C3904      C3905   1.404       .  A
C3905      C3906   1.394       .  A
C3905      F3912   1.357       .  S
C3906      C3907   1.400       .  A
C3906      H3911   1.084       .  S
C3907      C3908   1.406       .  A
C3908      F3909   1.357       .  S
C3913      C3914   1.400       .  A
C3913      C3918   1.393       .  A
C3913      H3920   1.084       .  S
C3914      C3915   1.405       .  A
C3915      C3916   1.403       .  A
C3915      F3922   1.356       .  S
C3916      C3917   1.408       .  A
C3916      H3921   1.082       .  S
C3917      C3918   1.407       .  A
C3918      F3919   1.358       .  S
C3923      C3924   1.401       .  A
C3923      C3928   1.390       .  A
C3923      H3930   1.084       .  S
C3924      C3925   1.409       .  A
C3925      C3926   1.404       .  A
C3925      F3932   1.357       .  S
C3926      C3927   1.403       .  A
C3926      H3931   1.083       .  S
C3927      C3928   1.402       .  A
C3928      F3929   1.357       .  S
C3933      C3934   1.402       .  A
C3933      C3938   1.390       .  A
C3933      H3940   1.084       .  S
C3934      C3935   1.410       .  A
C3935      C3936   1.407       .  A
C3935      F3942   1.357       .  S
C3936      C3937   1.405       .  A
C3936      H3941   1.082       .  S
C3937      C3938   1.403       .  A
C3938      F3939   1.358       .  S
C3943      C3944   1.404       .  A
C3943      C3948   1.404       .  A
C3943      H3950   1.083       .  S
C3944      C3945   1.403       .  A
C3945      C3946   1.397       .  A
C3945      F3952   1.358       .  S
C3946      C3947   1.401       .  A
C3946      H3951   1.077       .  S
C3947      C3948   1.407       .  A
C3948      F3949   1.357       .  S
C3953      C3954   1.402       .  A
C3953      C3958   1.395       .  A
C3953      H3960   1.084       .  S
C3954      C3955   1.407       .  A
C3955      C3956   1.399       .  A
C3955      F3962   1.357       .  S
C3956      C3957   1.404       .  A
C3956      H3961   1.083       .  S
C3957      C3958   1.404       .  A
C3958      F3959   1.357       .  S
C3963      C3964   1.401       .  A
C3963      C3968   1.390       .  A
C3963      H3970   1.084       .  S
C3964      C3965   1.408       .  A
C3965      C3966   1.402       .  A
C3965      F3972   1.356       .  S
C3966      C3967   1.403       .  A
C3966      H3971   1.083       .  S
C3967      C3968   1.404       .  A
C3968      F3969   1.358       .  S
C3973      C3974   1.403       .  A
C3973      C3978   1.395       .  A
C3973      H3980   1.084       .  S
C3974      C3975   1.410       .  A
C3975      C3976   1.406       .  A
C3975      F3982   1.356       .  S
C3976      C3977   1.406       .  A
C3976      H3981   1.083       .  S
C3977      C3978   1.407       .  A
C3978      F3979   1.358       .  S
C3983      C3984   1.407       .  A
C3983      C3988   1.403       .  A
C3983      H3990   1.083       .  S
C3984      C3985   1.404       .  A
C3985      C3986   1.394       .  A
C3985      F3992   1.358       .  S
C3986      C3987   1.403       .  A
C3986      H3991   1.083       .  S
C3987      C3988   1.406       .  A
C3988      F3989   1.357       .  S
C3993      C3994   1.401       .  A
C3993      C3998   1.395       .  A
C3993      H4000   1.084       .  S
C3994      C3995   1.407       .  A
C3995      C3996   1.399       .  A
C3995      F4002   1.357       .  S
C3996      C3997   1.403       .  A
C3996      H4001   1.083       .  S
C3997      C3998   1.404       .  A
C3998      F3999   1.357       .  S
C4003      C4004   1.400       .  A
C4003      C4008   1.393       .  A
C4003      H4010   1.084       .  S
C4004      C4005   1.407       .  A
C4005      C4006   1.403       .  A
C4005      F4012   1.355       .  S
C4006      C4007   1.403       .  A
C4006      H4011   1.083       .  S
C4007      C4008   1.404       .  A
C4008      F4009   1.356       .  S
C4013      C4014   1.402       .  A
C4013      C4018   1.403       .  A
C4013      H4020   1.083       .  S
C4014      C4015   1.404       .  A
C4015      C4016   1.393       .  A
C4015      F4022   1.358       .  S
C4016      C4017   1.402       .  A
C4016      H4021   1.084       .  S
C4017      C4018   1.409       .  A
C4018      F4019   1.356       .  S
C4023      C4024   1.404       .  A
C4023      C4028   1.396       .  A
C4023      H4030   1.084       .  S
C4024      C4025   1.408       .  A
C4025      C4026   1.400       .  A
C4025      F4032   1.357       .  S
C4026      C4027   1.404       .  A
C4026      H4031   1.083       .  S
C4027      C4028   1.405       .  A
C4028      F4029   1.358       .  S
C4033      C4034   1.405       .  A
C4033      C4038   1.402       .  A
C4033      H4040   1.083       .  S
C4034      C4035   1.403       .  A
C4035      C4036   1.391       .  A
C4035      F4042   1.355       .  S
C4036      C4037   1.399       .  A
C4036      H4041   1.075       .  S
C4037      C4038   1.410       .  A
C4038      F4039   1.357       .  S
C4043      C4044   1.402       .  A
C4043      C4048   1.399       .  A
C4043      H4050   1.082       .  S
C4044      C4045   1.403       .  A
C4045      C4046   1.399       .  A
C4045      F4052   1.357       .  S
C4046      C4047   1.403       .  A
C4046      H4051   1.083       .  S
C4047      C4048   1.403       .  A
C4048      F4049   1.356       .  S
C4053      C4054   1.406       .  A
C4053      C4058   1.404       .  A
C4053      H4060   1.083       .  S
C4054      C4055   1.405       .  A
C4055      C4056   1.395       .  A
C4055      F4062   1.357       .  S
C4056      C4057   1.401       .  A
C4056      H4061   1.084       .  S
C4057      C4058   1.405       .  A
C4058      F4059   1.356       .  S
C4063      C4064   1.400       .  A
C4063      C4068   1.394       .  A
C4063      H4070   1.084       .  S
C4064      C4065   1.408       .  A
C4065      C4066   1.403       .  A
C4065      F4072   1.355       .  S
C4066      C4067   1.403       .  A
C4066      H4071   1.083       .  S
C4067      C4068   1.405       .  A
C4068      F4069   1.358       .  S
C4073      C4074   1.407       .  A
C4073      C4078   1.402       .  A
C4073      H4080   1.081       .  S
C4074      C4075   1.404       .  A
C4075      C4076   1.394       .  A
C4075      F4082   1.357       .  S
C4076      C4077   1.403       .  A
C4076      H4081   1.084       .  S
C4077      C4078   1.406       .  A
C4078      F4079   1.357       .  S
C4083      C4084   1.401       .  A
C4083      C4088   1.393       .  A
C4083      H4090   1.083       .  S
C4084      C4085   1.407       .  A
C4085      C4086   1.399       .  A
C4085      F4092   1.357       .  S
C4086      C4087   1.403       .  A
C4086      H4091   1.083       .  S
C4087      C4088   1.404       .  A
C4088      F4089   1.357       .  S
C4093      C4094   1.400       .  A
C4093      C4098   1.397       .  A
C4093      H4100   1.082       .  S
C4094      C4095   1.404       .  A
C4095      C4096   1.399       .  A
C4095      F4102   1.357       .  S
C4096      C4097   1.401       .  A
C4096      H4101   1.083       .  S
C4097      C4098   1.403       .  A
C4098      F4099   1.358       .  S
C4103      C4104   1.407       .  A
C4103      C4108   1.403       .  A
C4103      H4110   1.080       .  S
C4104      C4105   1.405       .  A
C4105      C4106   1.393       .  A
C4105      F4112   1.357       .  S
C4106      C4107   1.403       .  A
C4106      H4111   1.084       .  S
C4107      C4108   1.406       .  A
C4108      F4109   1.357       .  S
C4113      C4114   1.403       .  A
C4113      C4118   1.401       .  A
C4113      H4120   1.083       .  S
C4114      C4115   1.405       .  A
C4115      C4116   1.396       .  A
C4115      F4122   1.358       .  S
C4116      C4117   1.404       .  A
C4116      H4121   1.084       .  S
C4117      C4118   1.410       .  A
C4118      F4119   1.356       .  S
C4123      C4124   1.402       .  A
C4123      C4128   1.391       .  A
C4123      H4130   1.084       .  S
C4124      C4125   1.406       .  A
C4125      C4126   1.406       .  A
C4125      F4132   1.357       .  S
C4126      C4127   1.408       .  A
C4126      H4131   1.083       .  S
C4127      C4128   1.403       .  A
C4128      F4129   1.358       .  S
C4133      C4134   1.404       .  A
C4133      C4138   1.400       .  A
C4133      H4140   1.083       .  S
C4134      C4135   1.405       .  A
C4135      C4136   1.395       .  A
C4135      F4142   1.358       .  S
C4136      C4137   1.401       .  A
C4136      H4141   1.084       .  S
C4137      C4138   1.406       .  A
C4138      F4139   1.357       .  S
C4143      C4144   1.404       .  A
C4143      C4148   1.403       .  A
C4143      H4150   1.083       .  S
C4144      C4145   1.405       .  A
C4145      C4146   1.393       .  A
C4145      F4152   1.357       .  S
C4146      C4147   1.399       .  A
C4146      H4151   1.079       .  S
C4147      C4148   1.409       .  A
C4148      F4149   1.357       .  S
C4153      C4154   1.401       .  A
C4153      C4158   1.395       .  A
C4153      H4160   1.084       .  S
C4154      C4155   1.407       .  A
C4155      C4156   1.399       .  A
C4155      F4162   1.357       .  S
C4156      C4157   1.403       .  A
C4156      H4161   1.083       .  S
C4157      C4158   1.406       .  A
C4158      F4159   1.357       .  S
C4163      C4164   1.401       .  A
C4163      C4168   1.393       .  A
C4163      H4170   1.084       .  S
C4164      C4165   1.406       .  A
C4165      C4166   1.407       .  A
C4165      F4172   1.357       .  S
C4166      C4167   1.406       .  A
C4166      H4171   1.083       .  S
C4167      C4168   1.404       .  A
C4168      F4169   1.358       .  S
C4173      C4174   1.401       .  A
C4173      C4178   1.394       .  A
C4173      H4180   1.084       .  S
C4174      C4175   1.410       .  A
C4175      C4176   1.400       .  A
C4175      F4182   1.357       .  S
C4176      C4177   1.401       .  A
C4176      H4181   1.082       .  S
C4177      C4178   1.404       .  A
C4178      F4179   1.358       .  S
C4183      C4184   1.407       .  A
C4183      C4188   1.406       .  A
C4183      H4190   1.083       .  S
C4184      C4185   1.405       .  A
C4185      C4186   1.392       .  A
C4185      F4192   1.357       .  S
C4186      C4187   1.401       .  A
C4186      H4191   1.084       .  S
C4187      C4188   1.407       .  A
C4188      F4189   1.356       .  S
