geometry optimzed in LAMMPS
_audit_creation_date              2020-12-01 
_audit_creation_method            'lammps2cif' 
_symmetry_space_group_name_H-M    'P1' 
_symmetry_Int_Tables_number       1 
_symmetry_cell_setting            triclinic 
loop_ 
_symmetry_equiv_pos_as_xyz 
  x,y,z 
_cell_length_a                    36.94990088 
_cell_length_b                    35.9746506048044 
_cell_length_c                    35.978346965777014 
_cell_angle_alpha                 90.55552157605959 
_cell_angle_beta                  89.3356386750538 
_cell_angle_gamma                 89.9600959297333 
loop_ 
_atom_site_label 
_atom_site_type_symbol 
_atom_site_fract_x 
_atom_site_fract_y 
_atom_site_fract_z 
_atom_site_charge 
N1          N  0.45874929  0.06477208  0.04258407    -0.07300
N2          N  0.43336596  0.08980132  0.04917887    -0.59400
N3          N  0.04142357  0.04043475  0.07071094    -0.07000
N4          N  0.06508038  0.04814121  0.09691089    -0.61500
N5          N  0.04174044  0.06661161  0.04542392    -0.06600
N6          N  0.06544000  0.09272402  0.05408668    -0.59400
N7          N  0.45811967  0.03924920  0.06851739    -0.06300
N8          N  0.43223105  0.04652126  0.09328375    -0.61900
C9          C  0.41667438  0.07801145  0.08063339     0.94900
C10         C  0.08020449  0.08065885  0.08606227     0.94700
N11         N  0.04351723  0.42588142  0.04363781    -0.07500
N12         N  0.06876774  0.40104967  0.05118458    -0.60000
N13         N  0.45930391  0.45183828  0.06700442    -0.05600
N14         N  0.43356887  0.44474505  0.09157139    -0.61200
N15         N  0.46065702  0.42557469  0.04134084    -0.07500
N16         N  0.43613617  0.39978970  0.04823200    -0.60300
N17         N  0.04229675  0.45198649  0.06948745    -0.05200
N18         N  0.06656247  0.44535273  0.09516168    -0.61300
Mn19       Mn  0.50033241  0.49587453  0.06992540     1.18400
C20         C  0.08312408  0.41369973  0.08337034     0.97000
C21         C  0.41918150  0.41234722  0.07943937     0.97600
N22         N  0.04611522  0.06606350  0.45754667    -0.07500
N23         N  0.07174716  0.09102700  0.45120277    -0.63800
N24         N  0.46432595  0.03979406  0.42787355    -0.06300
N25         N  0.44145083  0.04778620  0.40107989    -0.64500
N26         N  0.46235828  0.06499578  0.45455977    -0.07000
N27         N  0.43771910  0.09023894  0.44671996    -0.64100
N28         N  0.04738887  0.03970823  0.43198549    -0.05900
N29         N  0.07381876  0.04607011  0.40800958    -0.64800
Mn30       Mn  0.50216956  0.06663293  0.99999234     1.10700
C31         C  0.08920410  0.07794671  0.42034366     0.98200
C32         C  0.42468305  0.07915943  0.41338323     0.98300
N33         N  0.46363642  0.42633259  0.45355645    -0.07000
N34         N  0.43832628  0.40162948  0.44615378    -0.62400
N35         N  0.04796462  0.45257374  0.43129984    -0.06400
N36         N  0.07416908  0.44592269  0.40699878    -0.60700
N37         N  0.04703915  0.42644645  0.45654773    -0.07700
N38         N  0.07256636  0.40147050  0.44978755    -0.62000
N39         N  0.46461046  0.45192732  0.42768835    -0.06700
N40         N  0.44007669  0.44495326  0.40205155    -0.59200
Mn41       Mn  0.00364460  0.42493011  0.49866603     1.20200
Mn42       Mn  0.00606451  0.99593832  0.42868400     1.10100
Cl43       Cl  0.00297146  0.99583965  0.99936567    -0.87100
C44         C  0.42356304  0.41364505  0.41415186     0.95200
C45         C  0.08974033  0.41418491  0.41897172     0.95000
C46         C  0.11558198  0.10020656  0.39689793     0.85300
C47         C  0.11417135  0.08860451  0.35590006    -0.54900
C48         C  0.13598199  0.10857344  0.33318686     0.08200
C49         C  0.15903318  0.13794313  0.35410179     0.19200
C50         C  0.15570424  0.09705316  0.40766757    -0.55700
C51         C  0.17877422  0.11662751  0.38498404     0.08300
C52         C  0.10766391  0.14224499  0.39648037    -0.55200
C53         C  0.13114099  0.16283845  0.37506505     0.08900
H54         H  0.09487582  0.06869335  0.34488292     0.13400
H55         H  0.17874707  0.15247829  0.33618805    -0.00800
H56         H  0.16493937  0.08088545  0.43109115     0.13700
H57         H  0.08523120  0.15459527  0.41183116     0.13500
C58         C  0.11339254  0.39008342  0.39421399     0.85300
C59         C  0.10332708  0.34857736  0.39559723    -0.54900
C60         C  0.12427761  0.32617144  0.37334305     0.08200
C61         C  0.15199470  0.34812531  0.35009766     0.19200
C62         C  0.15444517  0.39185903  0.40155051    -0.55700
C63         C  0.17541993  0.36932160  0.37864088     0.08300
C64         C  0.11004875  0.40028787  0.35341995    -0.55200
C65         C  0.12981752  0.37851556  0.33015143     0.08900
H66         H  0.08161510  0.33783492  0.41300923     0.13400
H67         H  0.16679968  0.32917303  0.33172166    -0.00800
H68         H  0.16574809  0.41092932  0.42193920     0.13700
H69         H  0.09311732  0.42267708  0.34324822     0.13500
C70         C  0.11033856  0.39286731  0.10628187     0.85300
C71         C  0.10844658  0.40433049  0.14755723    -0.54900
C72         C  0.13177544  0.38587883  0.16972338     0.08200
C73         C  0.15606631  0.35834629  0.14812192     0.19200
C74         C  0.14959731  0.39918462  0.09447246    -0.55700
C75         C  0.17390962  0.38129464  0.11616128     0.08300
C76         C  0.10601935  0.35019661  0.10582077    -0.55200
C77         C  0.12929513  0.33117127  0.12849409     0.08900
H78         H  0.08923138  0.42450885  0.15876071     0.13400
H79         H  0.17520587  0.34604262  0.16758469    -0.00800
H80         H  0.15759588  0.41664914  0.07130709     0.13700
H81         H  0.08661108  0.33635526  0.08807610     0.13500
C82         C  0.10514472  0.10353483  0.11025773     0.85300
C83         C  0.10281668  0.14588762  0.10449072    -0.54900
C84         C  0.12433059  0.16652583  0.12760513     0.08200
C85         C  0.14756394  0.14186831  0.15339283     0.19200
C86         C  0.14544320  0.09407438  0.10503744    -0.55700
C87         C  0.16838481  0.11459859  0.12686025     0.08300
C88         C  0.09750703  0.09791654  0.15175055    -0.55200
C89         C  0.11993844  0.11723065  0.17440120     0.08900
H90         H  0.08564003  0.15838606  0.08381034     0.13400
H91         H  0.16499817  0.15828437  0.17227237    -0.00800
H92         H  0.15498167  0.07314035  0.08535653     0.13700
H93         H  0.07697727  0.07914497  0.16253941     0.13500
C94         C  0.40031248  0.10320703  0.39017013     0.85300
C95         C  0.36020679  0.10224785  0.40197042    -0.54900
C96         C  0.33780319  0.12372140  0.38073683     0.08200
C97         C  0.35931600  0.14649307  0.35136253     0.19200
C98         C  0.40048648  0.09387726  0.34820444    -0.55700
C99         C  0.37977780  0.11733517  0.32753885     0.08300
C100        C  0.41076115  0.14439346  0.39278198    -0.55200
C101        C  0.38898352  0.16723179  0.37321547     0.08900
H102        H  0.35041360  0.08529969  0.42469036     0.13400
H103        H  0.34312301  0.16509387  0.33387440    -0.00800
H104        H  0.41612376  0.07129697  0.33592865     0.13700
H105        H  0.43229779  0.15496697  0.41029559     0.13500
C106        C  0.38993565  0.10163711  0.10251693     0.85300
C107        C  0.39515624  0.10140134  0.14505346    -0.54900
C108        C  0.37249601  0.12474961  0.16507846     0.08200
C109        C  0.34557207  0.14467412  0.13922596     0.19200
C110        C  0.35018502  0.09098990  0.09722664    -0.55700
C111        C  0.32648840  0.11338297  0.11635212     0.08300
C112        C  0.39240341  0.14277695  0.09170050    -0.55200
C113        C  0.36996035  0.16554832  0.11142850     0.08900
H114        H  0.41495282  0.08359280  0.15809752     0.13400
H115        H  0.32690918  0.16427044  0.15271210    -0.00800
H116        H  0.34156005  0.06758594  0.08025499     0.13700
H117        H  0.41116031  0.15338814  0.07091202     0.13500
C118        C  0.39283365  0.39014354  0.10213430     0.85300
C119        C  0.39292509  0.34824676  0.09371224    -0.54900
C120        C  0.37035417  0.32791252  0.11610248     0.08200
C121        C  0.34784598  0.35287419  0.14330517     0.19200
C122        C  0.35346357  0.40196107  0.09726046    -0.55700
C123        C  0.32953177  0.38197990  0.11802929     0.08300
C124        C  0.40030759  0.39317426  0.14398117    -0.55200
C125        C  0.37637755  0.37447772  0.16589403     0.08900
H126        H  0.41003307  0.33559894  0.07241851     0.13400
H127        H  0.32885963  0.33853448  0.16215741    -0.00800
H128        H  0.34500081  0.42289511  0.07748879     0.13700
H129        H  0.42308754  0.40849017  0.15531182     0.13500
C130        C  0.39728646  0.39076630  0.39173081     0.85300
C131        C  0.40236072  0.39318613  0.34926421    -0.54900
C132        C  0.37832817  0.37225749  0.32905379     0.08200
C133        C  0.35279431  0.34927743  0.35438215     0.19200
C134        C  0.35716221  0.40023347  0.39907532    -0.55700
C135        C  0.33365284  0.37824229  0.37965241     0.08300
C136        C  0.40103569  0.34923944  0.39966118    -0.55200
C137        C  0.37840690  0.32729055  0.37990178     0.08900
H138        H  0.42352710  0.40976798  0.33639851     0.13400
H139        H  0.33265202  0.33188486  0.34003583    -0.00800
H140        H  0.34832157  0.42255202  0.41759648     0.13700
H141        H  0.42144561  0.33768140  0.41773554     0.13500
C142        C  0.37959060  0.40790567  0.22841928    -0.03000
C143        C  0.37820416  0.37436107  0.20758070     0.06700
C144        C  0.37682683  0.34048692  0.22687710    -0.03100
C145        C  0.37314724  0.33975868  0.26572051    -0.03100
C146        C  0.37709217  0.37289390  0.28708797     0.06800
C147        C  0.37964774  0.40722795  0.26774423    -0.03300
Br148      Br  0.37788918  0.45447727  0.29422338    -0.01900
Br149      Br  0.38044660  0.45545984  0.20370707    -0.02000
Br150      Br  0.36032211  0.29215558  0.28656553    -0.01900
Br151      Br  0.38469970  0.29384110  0.20156053    -0.01900
C152        C  0.40413737  0.22688810  0.11400211    -0.03000
C153        C  0.37140634  0.20698651  0.10943955     0.06700
C154        C  0.33897202  0.22696332  0.10751976    -0.03100
C155        C  0.33832563  0.26518392  0.11471329    -0.03100
C156        C  0.37067537  0.28603388  0.11503554     0.06800
C157        C  0.40399032  0.26619560  0.11503812    -0.03300
Br158      Br  0.44935985  0.29183436  0.12332730    -0.01900
Br159      Br  0.44910320  0.20105392  0.12172314    -0.02000
Br160      Br  0.29298018  0.28493016  0.13088362    -0.01900
Br161      Br  0.29509393  0.20299946  0.09211972    -0.01900
C162        C  0.41069096  0.12014377  0.26403113    -0.03000
C163        C  0.37865926  0.11761708  0.28582424     0.06700
C164        C  0.34514300  0.12197820  0.26809564    -0.03100
C165        C  0.34346426  0.13181611  0.23047652    -0.03100
C166        C  0.37474755  0.12897525  0.20721077     0.06800
C167        C  0.40874184  0.12602031  0.22523060    -0.03300
Br168      Br  0.45323187  0.13672985  0.19857845    -0.01900
Br169      Br  0.45782641  0.11584477  0.28654936    -0.02000
Br170      Br  0.29929316  0.15636188  0.21643766    -0.01900
Br171      Br  0.30030894  0.11087296  0.29368635    -0.01900
C172        C  0.37000950  0.22564167  0.40627836    -0.03000
C173        C  0.39032111  0.20828233  0.37762774     0.06700
C174        C  0.41145639  0.23033115  0.35363597    -0.03100
C175        C  0.40955680  0.26938918  0.35633140    -0.03100
C176        C  0.38310726  0.28628109  0.37965808     0.06800
C177        C  0.36430749  0.26429809  0.40560228    -0.03300
Br178      Br  0.33089695  0.28688187  0.44033564    -0.01900
Br179      Br  0.35055228  0.19664253  0.44682627    -0.02000
Br180      Br  0.44363799  0.29946840  0.32862428    -0.01900
Br181      Br  0.44374567  0.20737922  0.31801607    -0.01900
C182        C  0.23136313  0.10459917  0.15416046    -0.03000
C183        C  0.20920587  0.11157225  0.12307506     0.06700
C184        C  0.22665063  0.11481460  0.08767378    -0.03100
C185        C  0.26500805  0.11375937  0.08457743    -0.03100
C186        C  0.28624655  0.10753115  0.11629863     0.06800
C187        C  0.26857356  0.09784052  0.14937551    -0.03300
Br188      Br  0.29355973  0.06735546  0.18467532    -0.01900
Br189      Br  0.21430282  0.10877699  0.20440782    -0.02000
Br190      Br  0.28833936  0.11993219  0.03674315    -0.01900
Br191      Br  0.19906470  0.12570068  0.04372444    -0.01900
C192        C  0.15953256  0.26665499  0.13358007    -0.03000
C193        C  0.12780638  0.28882530  0.13234818     0.06700
C194        C  0.09412176  0.26954203  0.13256816    -0.03100
C195        C  0.09269901  0.23008877  0.13069115    -0.03100
C196        C  0.12488414  0.20864745  0.12824066     0.06800
C197        C  0.15809690  0.22777435  0.12858046    -0.03300
Br198      Br  0.20259572  0.20190642  0.11786969    -0.01900
Br199      Br  0.20564858  0.28641988  0.14653733    -0.02000
Br200      Br  0.04596119  0.20612585  0.13234502    -0.01900
Br201      Br  0.04918386  0.29605857  0.14054186    -0.01900
C202        C  0.27164259  0.36091880  0.08788040    -0.03000
C203        C  0.28972922  0.38508579  0.11269191     0.06700
C204        C  0.26986075  0.41408648  0.12979995    -0.03100
C205        C  0.23211358  0.41593581  0.12527783    -0.03100
C206        C  0.21364869  0.38521880  0.11018764     0.06800
C207        C  0.23345209  0.35926090  0.08853172    -0.03300
Br208      Br  0.20837223  0.32365831  0.05778960    -0.01900
Br209      Br  0.29881219  0.33260322  0.05120162    -0.02000
Br210      Br  0.20645375  0.46184427  0.13536357    -0.01900
Br211      Br  0.29392315  0.45123393  0.15918709    -0.01900
C212        C  0.15787704  0.40076859  0.27136611    -0.03000
C213        C  0.12863676  0.38411121  0.28962547     0.06700
C214        C  0.09731149  0.37530852  0.26948056    -0.03100
C215        C  0.09739569  0.37884949  0.23052975    -0.03100
C216        C  0.12990100  0.38811309  0.21131455     0.06800
C217        C  0.16027304  0.39898401  0.23252019    -0.03300
Br218      Br  0.20631988  0.40988120  0.21083789    -0.01900
Br219      Br  0.19129339  0.43133033  0.29914717    -0.02000
Br220      Br  0.05271030  0.37014460  0.20471584    -0.01900
Br221      Br  0.05404481  0.35897887  0.29536896    -0.01900
C222        C  0.23522872  0.37152544  0.41424645    -0.03000
C223        C  0.21659120  0.36830488  0.37984545     0.06700
C224        C  0.23823029  0.36806669  0.34682230    -0.03100
C225        C  0.27403869  0.38032742  0.34794555    -0.03100
C226        C  0.29312875  0.38083650  0.38138863     0.06800
C227        C  0.27338014  0.37637027  0.41486334    -0.03300
Br228      Br  0.29825245  0.37697651  0.46163947    -0.01900
Br229      Br  0.21020994  0.36337673  0.46088869    -0.02000
Br230      Br  0.29452729  0.40110428  0.30342713    -0.01900
Br231      Br  0.22611216  0.34353184  0.30052957    -0.01900
C232        C  0.13734319  0.08092612  0.23073132    -0.03000
C233        C  0.11962121  0.11176776  0.21522213     0.06700
C234        C  0.10097268  0.13660345  0.23894806    -0.03100
C235        C  0.10327797  0.13264757  0.27763870    -0.03100
C236        C  0.12920353  0.10826300  0.29256106     0.06800
C237        C  0.14474685  0.08084287  0.26909635    -0.03300
Br238      Br  0.17578586  0.04325054  0.28917910    -0.01900
Br239      Br  0.15119906  0.03901174  0.19962394    -0.02000
Br240      Br  0.06914748  0.15891199  0.30942785    -0.01900
Br241      Br  0.07108863  0.17499435  0.21891710    -0.01900
C242        C  0.23747150  0.15221485  0.38928228    -0.03000
C243        C  0.21934280  0.11774028  0.38867110     0.06700
C244        C  0.24037725  0.08497258  0.38673988    -0.03100
C245        C  0.27873129  0.08688292  0.38558173    -0.03100
C246        C  0.29685252  0.12188627  0.38387944     0.06800
C247        C  0.27510980  0.15444014  0.38353014    -0.03300
Br248      Br  0.29375019  0.20297337  0.37155014    -0.01900
Br249      Br  0.21188218  0.19735787  0.40126643    -0.02000
Br250      Br  0.30525262  0.04060124  0.38063336    -0.01900
Br251      Br  0.21684095  0.03715142  0.38296413    -0.01900
C252        C  0.12639457  0.26373599  0.34034652    -0.03000
C253        C  0.12331395  0.28434139  0.37387240     0.06700
C254        C  0.12397221  0.26480419  0.40788782    -0.03100
C255        C  0.12565751  0.22552140  0.40805212    -0.03100
C256        C  0.12976525  0.20493519  0.37423770     0.06800
C257        C  0.13331488  0.22527749  0.34067978    -0.03300
Br258      Br  0.15153701  0.20408255  0.29460594    -0.01900
Br259      Br  0.11860213  0.28669686  0.29277740    -0.02000
Br260      Br  0.12867199  0.20111375  0.45583324    -0.01900
Br261      Br  0.12591340  0.29118939  0.45503649    -0.01900
N262        N  0.45874097  0.06476427  0.54258114    -0.07300
N263        N  0.43335567  0.08979103  0.54918014    -0.59400
N264        N  0.04141638  0.04042990  0.57071563    -0.07000
N265        N  0.06507079  0.04814028  0.59691712    -0.61500
N266        N  0.04173441  0.06660463  0.54542635    -0.06600
N267        N  0.06543203  0.09271860  0.55408827    -0.59400
N268        N  0.45811796  0.03924211  0.56851555    -0.06300
N269        N  0.43223294  0.04651297  0.59328674    -0.61900
C270        C  0.41666996  0.07800090  0.58063847     0.94900
C271        C  0.08019457  0.08065767  0.58606600     0.94700
N272        N  0.04352206  0.42589199  0.54363361    -0.07500
N273        N  0.06877523  0.40106257  0.55117751    -0.60000
N274        N  0.45929910  0.45183114  0.56700979    -0.05600
N275        N  0.43357100  0.44473731  0.59158381    -0.61200
N276        N  0.46064723  0.42556815  0.54134523    -0.07500
N277        N  0.43612859  0.39978266  0.54824297    -0.60300
N278        N  0.04230312  0.45199796  0.56948236    -0.05200
N279        N  0.06657272  0.44536698  0.59515338    -0.61300
Mn280      Mn  0.50032947  0.49586122  0.56992833     1.18400
C281        C  0.08313522  0.41371491  0.58336045     0.97000
C282        C  0.41918180  0.41233968  0.57945536     0.97600
N283        N  0.04612335  0.06606599  0.95754222    -0.07500
N284        N  0.07175496  0.09102964  0.95119616    -0.63800
N285        N  0.46432855  0.03980104  0.92788313    -0.06300
N286        N  0.44145245  0.04779548  0.90109138    -0.64500
N287        N  0.46236475  0.06500293  0.95456934    -0.07000
N288        N  0.43772710  0.09024822  0.94673207    -0.64100
N289        N  0.04739957  0.03970804  0.93198373    -0.05900
N290        N  0.07382995  0.04606874  0.90800758    -0.64800
Mn291      Mn  0.50216210  0.06662856  0.49998601     1.10700
C292        C  0.08921389  0.07794707  0.92033877     0.98200
C293        C  0.42468826  0.07917011  0.91339641     0.98300
N294        N  0.46364145  0.42633618  0.95355633    -0.07000
N295        N  0.43832343  0.40163862  0.94616135    -0.62400
N296        N  0.04795312  0.45257073  0.93130142    -0.06400
N297        N  0.07415382  0.44592058  0.90699607    -0.60700
N298        N  0.04703206  0.42644304  0.95654908    -0.07700
N299        N  0.07255837  0.40146755  0.94978433    -0.62000
N300        N  0.46461334  0.45193089  0.92768825    -0.06700
N301        N  0.44007004  0.44496194  0.90205920    -0.59200
Mn302      Mn  0.00364031  0.42492184  0.99866849     1.20200
Mn303      Mn  0.00607517  0.99593813  0.92868243     1.10100
Cl304      Cl  0.00296737  0.99583536  0.49936721    -0.87100
C305        C  0.42355165  0.41365748  0.91416433     0.95200
C306        C  0.08972718  0.41418297  0.91896616     0.95000
C307        C  0.11559184  0.10020648  0.89689133     0.85300
C308        C  0.11418237  0.08860548  0.85589270    -0.54900
C309        C  0.13599348  0.10857616  0.83318047     0.08200
C310        C  0.15904230  0.13794646  0.85409653     0.19200
C311        C  0.15571413  0.09705376  0.90766062    -0.55700
C312        C  0.17878347  0.11662965  0.88497782     0.08300
C313        C  0.10767262  0.14224456  0.89647483    -0.55200
C314        C  0.13114865  0.16283979  0.87506049     0.08900
H315        H  0.09488767  0.06869396  0.84487498     0.13400
H316        H  0.17875477  0.15248420  0.83618286    -0.00800
H317        H  0.16494993  0.08088526  0.93108343     0.13700
H318        H  0.08523895  0.15459342  0.91182508     0.13500
C319        C  0.11337571  0.39008268  0.89420490     0.85300
C320        C  0.10331760  0.34857510  0.89559497    -0.54900
C321        C  0.12426666  0.32617104  0.87333747     0.08200
C322        C  0.15197580  0.34812704  0.85008387     0.19200
C323        C  0.15442894  0.39186629  0.90153208    -0.55700
C324        C  0.17540214  0.36932945  0.87862109     0.08300
C325        C  0.11002131  0.40028282  0.85341105    -0.55200
C326        C  0.12979013  0.37851258  0.83014059     0.08900
H327        H  0.08161220  0.33783003  0.91301415     0.13400
H328        H  0.16678196  0.32917574  0.83170496    -0.00800
H329        H  0.16573373  0.41093784  0.92191911     0.13700
H330        H  0.09308682  0.42267056  0.84324141     0.13500
C331        C  0.11034627  0.39287932  0.60627257     0.85300
C332        C  0.10845253  0.40434089  0.64754790    -0.54900
C333        C  0.13177628  0.38588491  0.66971572     0.08200
C334        C  0.15606617  0.35834911  0.64811498     0.19200
C335        C  0.14960671  0.39919144  0.59446638    -0.55700
C336        C  0.17391532  0.38129703  0.61615621     0.08300
C337        C  0.10602054  0.35020981  0.60580897    -0.55200
C338        C  0.12929214  0.33118012  0.62848199     0.08900
H339        H  0.08923862  0.42452093  0.65875060     0.13400
H340        H  0.17520290  0.34603745  0.66757782    -0.00800
H341        H  0.15760922  0.41665719  0.57130334     0.13700
H342        H  0.08661050  0.33637173  0.58806371     0.13500
C343        C  0.10513282  0.10353968  0.61025805     0.85300
C344        C  0.10279335  0.14589178  0.60448812    -0.54900
C345        C  0.12430849  0.16653667  0.62759466     0.08200
C346        C  0.14755045  0.14188783  0.65338156     0.19200
C347        C  0.14543325  0.09408781  0.60503335    -0.55700
C348        C  0.16837426  0.11461886  0.62685137     0.08300
C349        C  0.09750315  0.09792263  0.65175199    -0.55200
C350        C  0.11993411  0.11724469  0.67439673     0.08900
H351        H  0.08561004  0.15838485  0.58381037     0.13400
H352        H  0.16498286  0.15831430  0.67225383    -0.00800
H353        H  0.15497241  0.07314917  0.58535769     0.13700
H354        H  0.07698106  0.07914505  0.66254575     0.13500
C355        C  0.40031738  0.10321869  0.89018602     0.85300
C356        C  0.36021331  0.10226143  0.90199046    -0.54900
C357        C  0.33780926  0.12373310  0.88075617     0.08200
C358        C  0.35931938  0.14650245  0.85137838     0.19200
C359        C  0.40048654  0.09388473  0.84822161    -0.55700
C360        C  0.37977761  0.11734169  0.82755574     0.08300
C361        C  0.41076754  0.14440551  0.89279374    -0.55200
C362        C  0.38898842  0.16724313  0.87322738     0.08900
H363        H  0.35042094  0.08531390  0.92471140     0.13400
H364        H  0.34312529  0.16510192  0.83389000    -0.00800
H365        H  0.41612079  0.07130191  0.83594651     0.13700
H366        H  0.43230505  0.15497969  0.91030582     0.13500
C367        C  0.38993204  0.10162607  0.60252725     0.85300
C368        C  0.39515131  0.10138544  0.64506455    -0.54900
C369        C  0.37249356  0.12473518  0.66509177     0.08200
C370        C  0.34557130  0.14466374  0.63924011     0.19200
C371        C  0.35017958  0.09098364  0.59723572    -0.55700
C372        C  0.32648405  0.11337696  0.61636316     0.08300
C373        C  0.39240384  0.14276746  0.59171625    -0.55200
C374        C  0.36996179  0.16553888  0.61144567     0.08900
H375        H  0.41494591  0.08357335  0.65810707     0.13400
H376        H  0.32690972  0.16426049  0.65272583    -0.00800
H377        H  0.34155290  0.06758212  0.58026166     0.13700
H378        H  0.41116326  0.15337954  0.57093037     0.13500
C379        C  0.39283838  0.39013766  0.60215590     0.85300
C380        C  0.39293188  0.34824000  0.59373854    -0.54900
C381        C  0.37036250  0.32790648  0.61613054     0.08200
C382        C  0.34785309  0.35287070  0.64333141     0.19200
C383        C  0.35346841  0.40195436  0.59728296    -0.55700
C384        C  0.32953736  0.38197642  0.61805518     0.08300
C385        C  0.40031343  0.39317424  0.64400201    -0.55200
C386        C  0.37638444  0.37447862  0.66591648     0.08900
H387        H  0.41003952  0.33559137  0.57244504     0.13400
H388        H  0.32886830  0.33853006  0.66218518    -0.00800
H389        H  0.34500496  0.42288652  0.57750976     0.13700
H390        H  0.42309167  0.40849420  0.65533111     0.13500
C391        C  0.39726894  0.39077928  0.89174580     0.85300
C392        C  0.40234440  0.39319674  0.84927933    -0.54900
C393        C  0.37831224  0.37226748  0.82906930     0.08200
C394        C  0.35277800  0.34928842  0.85439544     0.19200
C395        C  0.35714244  0.40024688  0.89908629    -0.55700
C396        C  0.33363409  0.37825518  0.87965997     0.08300
C397        C  0.40101646  0.34925243  0.89967770    -0.55200
C398        C  0.37838934  0.32730265  0.87991720     0.08900
H399        H  0.42351049  0.40977855  0.83641296     0.13400
H400        H  0.33263656  0.33189544  0.84004896    -0.00800
H401        H  0.34830004  0.42256639  0.91760532     0.13700
H402        H  0.42142632  0.33769444  0.91775222     0.13500
C403        C  0.37958358  0.40791364  0.72843790    -0.03000
C404        C  0.37820903  0.37436737  0.70760151     0.06700
C405        C  0.37683630  0.34049426  0.72689808    -0.03100
C406        C  0.37313766  0.33976699  0.76573848    -0.03100
C407        C  0.37707691  0.37290311  0.78710538     0.06800
C408        C  0.37963301  0.40723732  0.76776243    -0.03300
Br409      Br  0.37786250  0.45448686  0.79424128    -0.01900
Br410      Br  0.38044158  0.45546630  0.70372371    -0.02000
Br411      Br  0.36028870  0.29216604  0.78657419    -0.01900
Br412      Br  0.38475378  0.29385256  0.70158894    -0.01900
C413        C  0.40414175  0.22687728  0.61402818    -0.03000
C414        C  0.37141006  0.20697786  0.60946134     0.06700
C415        C  0.33897693  0.22695701  0.60754058    -0.03100
C416        C  0.33833267  0.26517813  0.61473576    -0.03100
C417        C  0.37068333  0.28602646  0.61506332     0.06800
C418        C  0.40399733  0.26618531  0.61506383    -0.03300
Br419      Br  0.44937079  0.29182011  0.62334213    -0.01900
Br420      Br  0.44910376  0.20103839  0.62175931    -0.02000
Br421      Br  0.29298642  0.28493212  0.63089167    -0.01900
Br422      Br  0.29509786  0.20299362  0.59213960    -0.01900
C423        C  0.41068933  0.12013706  0.76404780    -0.03000
C424        C  0.37865739  0.11761928  0.78584131     0.06700
C425        C  0.34514194  0.12198415  0.76811217    -0.03100
C426        C  0.34346560  0.13181767  0.73049178    -0.03100
C427        C  0.37474737  0.12896276  0.70722479     0.06800
C428        C  0.40874134  0.12600268  0.72524528    -0.03300
Br429      Br  0.45323511  0.13669207  0.69859173    -0.01900
Br430      Br  0.45782396  0.11584735  0.78657045    -0.02000
Br431      Br  0.29930474  0.15638463  0.71645648    -0.01900
Br432      Br  0.30030454  0.11089463  0.79370407    -0.01900
C433        C  0.37001710  0.22565213  0.90629698    -0.03000
C434        C  0.39032221  0.20829478  0.87763962     0.06700
C435        C  0.41144428  0.23034707  0.85363867    -0.03100
C436        C  0.40953911  0.26940512  0.85633421    -0.03100
C437        C  0.38309494  0.28629340  0.87967008     0.06800
C438        C  0.36430925  0.26430807  0.90562263    -0.03300
Br439      Br  0.33091253  0.28689020  0.94037188    -0.01900
Br440      Br  0.35057147  0.19665065  0.94684869    -0.02000
Br441      Br  0.44361131  0.29948947  0.82862136    -0.01900
Br442      Br  0.44372412  0.20739999  0.81800617    -0.01900
C443        C  0.23135174  0.10464071  0.65416637    -0.03000
C444        C  0.20919670  0.11159005  0.62307315     0.06700
C445        C  0.22664605  0.11480556  0.58767117    -0.03100
C446        C  0.26500426  0.11374557  0.58457998    -0.03100
C447        C  0.28623958  0.10753252  0.61630717     0.06800
C448        C  0.26856032  0.09786779  0.64938829    -0.03300
Br449      Br  0.29352807  0.06738269  0.68470100    -0.01900
Br450      Br  0.21429867  0.10887859  0.70441251    -0.02000
Br451      Br  0.28833964  0.11989223  0.53674474    -0.01900
Br452      Br  0.19906620  0.12566518  0.54371049    -0.01900
C453        C  0.15952073  0.26666076  0.63354070    -0.03000
C454        C  0.12779716  0.28883469  0.63232997     0.06700
C455        C  0.09410994  0.26955640  0.63255927    -0.03100
C456        C  0.09268166  0.23010312  0.63068321    -0.03100
C457        C  0.12486338  0.20865813  0.62821972     0.06800
C458        C  0.15807789  0.22778156  0.62853670    -0.03300
Br459      Br  0.20256444  0.20191251  0.61777684    -0.01900
Br460      Br  0.20564474  0.28642159  0.64646975    -0.02000
Br461      Br  0.04594282  0.20614517  0.63235046    -0.01900
Br462      Br  0.04917810  0.29608057  0.64053932    -0.01900
C463        C  0.27165408  0.36092560  0.58789072    -0.03000
C464        C  0.28973499  0.38508378  0.61271493     0.06700
C465        C  0.26986390  0.41408668  0.62981760    -0.03100
C466        C  0.23211757  0.41593711  0.62528668    -0.03100
C467        C  0.21365569  0.38522230  0.61018910     0.06800
C468        C  0.23346321  0.35927304  0.58852671    -0.03300
Br469      Br  0.20838943  0.32369742  0.55774903    -0.01900
Br470      Br  0.29883434  0.33261758  0.55121431    -0.02000
Br471      Br  0.20645703  0.46184979  0.63535136    -0.01900
Br472      Br  0.29392139  0.45124266  0.65919819    -0.01900
C473        C  0.15785129  0.40078388  0.77136487    -0.03000
C474        C  0.12861297  0.38411478  0.78961624     0.06700
C475        C  0.09729214  0.37531098  0.76946567    -0.03100
C476        C  0.09738420  0.37885232  0.73051503    -0.03100
C477        C  0.12989307  0.38811812  0.71130673     0.06800
C478        C  0.16025638  0.39900099  0.73251933    -0.03300
Br479      Br  0.20630045  0.40992524  0.71084671    -0.01900
Br480      Br  0.19124870  0.43135882  0.79915705    -0.02000
Br481      Br  0.05270168  0.37015676  0.70469423    -0.01900
Br482      Br  0.05401878  0.35898884  0.79534737    -0.01900
C483        C  0.23520439  0.37152560  0.91423115    -0.03000
C484        C  0.21657209  0.36831271  0.87982726     0.06700
C485        C  0.23821381  0.36808206  0.84680650    -0.03100
C486        C  0.27402373  0.38033977  0.84793736    -0.03100
C487        C  0.29310860  0.38084899  0.88138528     0.06800
C488        C  0.27335434  0.37637646  0.91485518    -0.03300
Br489      Br  0.29821718  0.37698263  0.96163583    -0.01900
Br490      Br  0.21017936  0.36335686  0.96086690    -0.02000
Br491      Br  0.29451655  0.40112246  0.80342437    -0.01900
Br492      Br  0.22608640  0.34357413  0.80050184    -0.01900
C493        C  0.13736903  0.08094669  0.73072026    -0.03000
C494        C  0.11962860  0.11178011  0.71521661     0.06700
C495        C  0.10097513  0.13660786  0.73894618    -0.03100
C496        C  0.10328449  0.13264929  0.77763596    -0.03100
C497        C  0.12921648  0.10826938  0.79255463     0.06800
C498        C  0.14477491  0.08086238  0.76908473    -0.03300
Br499      Br  0.17584439  0.04329085  0.78915730    -0.01900
Br500      Br  0.15125865  0.03905024  0.69960364    -0.02000
Br501      Br  0.06915591  0.15891133  0.80942909    -0.01900
Br502      Br  0.07108379  0.17499596  0.71891994    -0.01900
C503        C  0.23747765  0.15221968  0.88928267    -0.03000
C504        C  0.21935116  0.11774402  0.88866693     0.06700
C505        C  0.24038721  0.08497712  0.88673797    -0.03100
C506        C  0.27874114  0.08688943  0.88559126    -0.03100
C507        C  0.29686005  0.12189420  0.88389551     0.06800
C508        C  0.27511683  0.15444693  0.88354247    -0.03300
Br509      Br  0.29376060  0.20298221  0.87157617    -0.01900
Br510      Br  0.21188338  0.19736295  0.90125293    -0.02000
Br511      Br  0.30526692  0.04060941  0.88065062    -0.01900
Br512      Br  0.21685438  0.03715535  0.88294583    -0.01900
C513        C  0.12638096  0.26373603  0.84034407    -0.03000
C514        C  0.12330853  0.28434155  0.87386975     0.06700
C515        C  0.12397832  0.26480543  0.90788511    -0.03100
C516        C  0.12566232  0.22552250  0.90804924    -0.03100
C517        C  0.12976898  0.20493661  0.87423415     0.06800
C518        C  0.13331143  0.22527978  0.84067614    -0.03300
Br519      Br  0.15153831  0.20409186  0.79460147    -0.01900
Br520      Br  0.11855816  0.28669308  0.79277941    -0.02000
Br521      Br  0.12867137  0.20111459  0.95583030    -0.01900
Br522      Br  0.12593619  0.29119263  0.95503149    -0.01900
N523        N  0.45875001  0.56477307  0.04258275    -0.07300
N524        N  0.43336552  0.58980045  0.04917972    -0.59400
N525        N  0.04142201  0.54042767  0.07071527    -0.07000
N526        N  0.06508309  0.54813423  0.09691142    -0.61500
N527        N  0.04173640  0.56660360  0.04542744    -0.06600
N528        N  0.06543805  0.59271506  0.05408512    -0.59400
N529        N  0.45812401  0.53925022  0.06851623    -0.06300
N530        N  0.43223740  0.54652062  0.09328506    -0.61900
C531        C  0.41667756  0.57800946  0.08063587     0.94900
C532        C  0.08020708  0.58065079  0.08605839     0.94700
N533        N  0.04351509  0.92588693  0.04363302    -0.07500
N534        N  0.06876706  0.90105601  0.05117583    -0.60000
N535        N  0.45929632  0.95183709  0.06700683    -0.05600
N536        N  0.43356389  0.94474258  0.09157618    -0.61200
N537        N  0.46064868  0.92557378  0.04134274    -0.07500
N538        N  0.43612931  0.89978784  0.04823604    -0.60300
N539        N  0.04229867  0.95199344  0.06948130    -0.05200
N540        N  0.06656952  0.94536132  0.09515093    -0.61300
Mn541      Mn  0.50032633  0.99587061  0.06992971     1.18400
C542        C  0.08312958  0.91370788  0.08335749     0.97000
C543        C  0.41917703  0.91234435  0.07944525     0.97600
N544        N  0.04612750  0.56606920  0.45753924    -0.07500
N545        N  0.07175823  0.59103348  0.45119171    -0.63800
N546        N  0.46432758  0.53979668  0.42787962    -0.06300
N547        N  0.44145500  0.54779312  0.40108507    -0.64500
N548        N  0.46236167  0.56499774  0.45456652    -0.07000
N549        N  0.43772610  0.59024466  0.44672660    -0.64100
N550        N  0.04740214  0.53971176  0.43198008    -0.05900
N551        N  0.07383070  0.54607349  0.40800201    -0.64800
Mn552      Mn  0.50216955  0.56663724  0.99998988     1.10700
C553        C  0.08921511  0.57795185  0.42033271     0.98200
C554        C  0.42469071  0.57916822  0.41338878     0.98300
N555        N  0.46363559  0.92633148  0.45355091    -0.07000
N556        N  0.43832073  0.90163214  0.44615212    -0.62400
N557        N  0.04795220  0.95257215  0.43129734    -0.06400
N558        N  0.07415261  0.94592185  0.40699176    -0.60700
N559        N  0.04703163  0.92644466  0.45654544    -0.07700
N560        N  0.07255764  0.90146892  0.44978017    -0.62000
N561        N  0.46460961  0.95192622  0.42768293    -0.06700
N562        N  0.44007075  0.94495605  0.40205014    -0.59200
Mn563      Mn  0.00363978  0.92492343  0.49866552     1.20200
Mn564      Mn  0.00607785  0.49594086  0.42868172     1.10100
Cl565      Cl  0.00296780  0.49583417  0.99937065    -0.87100
C566        C  0.42355385  0.91365032  0.41415281     0.95200
C567        C  0.08972614  0.91418426  0.41896174     0.95000
C568        C  0.11559364  0.60021090  0.39688514     0.85300
C569        C  0.11418409  0.58860909  0.35588677    -0.54900
C570        C  0.13599522  0.60857902  0.33317395     0.08200
C571        C  0.15904526  0.63794883  0.35408972     0.19200
C572        C  0.15571601  0.59705806  0.40765503    -0.55700
C573        C  0.17878615  0.61663306  0.38497212     0.08300
C574        C  0.10767520  0.64224922  0.39646735    -0.55200
C575        C  0.13115215  0.66284330  0.37505265     0.08900
H576        H  0.09488906  0.56869760  0.34486952     0.13400
H577        H  0.17875854  0.65248517  0.33617610    -0.00800
H578        H  0.16495110  0.58089057  0.43107884     0.13700
H579        H  0.08524198  0.65459905  0.41181750     0.13500
C580        C  0.11337737  0.89008562  0.39420131     0.85300
C581        C  0.10332397  0.84857655  0.39559073    -0.54900
C582        C  0.12427556  0.82617538  0.37333229     0.08200
C583        C  0.15198275  0.84813508  0.35008044     0.19200
C584        C  0.15443033  0.89187372  0.40152967    -0.55700
C585        C  0.17540638  0.86933937  0.37861911     0.08300
C586        C  0.11002235  0.90028560  0.35340726    -0.55200
C587        C  0.12979358  0.87851785  0.33013684     0.08900
H588        H  0.08162042  0.83782839  0.41301036     0.13400
H589        H  0.16679093  0.82918581  0.33170225    -0.00800
H590        H  0.16573240  0.91094613  0.42191719     0.13700
H591        H  0.09308427  0.92267037  0.34323738     0.13500
C592        C  0.11034109  0.89287102  0.10626784     0.85300
C593        C  0.10844378  0.90432697  0.14754435    -0.54900
C594        C  0.13176942  0.88587181  0.16971043     0.08200
C595        C  0.15606280  0.85834144  0.14810795     0.19200
C596        C  0.14960129  0.89918889  0.09446419    -0.55700
C597        C  0.17391042  0.88129337  0.11615235     0.08300
C598        C  0.10602113  0.85020049  0.10579840    -0.55200
C599        C  0.12929391  0.83117089  0.12847117     0.08900
H600        H  0.08922709  0.92450348  0.15874884     0.13400
H601        H  0.17519967  0.84603301  0.16757123    -0.00800
H602        H  0.15760307  0.91665669  0.07130255     0.13700
H603        H  0.08661526  0.83636231  0.08804858     0.13500
C604        C  0.10514835  0.60353084  0.11024829     0.85300
C605        C  0.10281689  0.64588206  0.10447249    -0.54900
C606        C  0.12433095  0.66652651  0.12758044     0.08200
C607        C  0.14756706  0.64187698  0.15337248     0.19200
C608        C  0.14544749  0.59407265  0.10502751    -0.55700
C609        C  0.16838856  0.61460366  0.12684511     0.08300
C610        C  0.09751366  0.59791995  0.15174227    -0.55200
C611        C  0.11994538  0.61723983  0.17438759     0.08900
H612        H  0.08563859  0.65837512  0.08379039     0.13400
H613        H  0.16500086  0.65830046  0.17224610    -0.00800
H614        H  0.15498637  0.57313400  0.08535174     0.13700
H615        H  0.07698724  0.57914716  0.16253597     0.13500
C616        C  0.40032130  0.60321740  0.39017646     0.85300
C617        C  0.36021678  0.60226362  0.40198072    -0.54900
C618        C  0.33781366  0.62373542  0.38074514     0.08200
C619        C  0.35932538  0.64650152  0.35136641     0.19200
C620        C  0.40049014  0.59388143  0.34821243    -0.55700
C621        C  0.37978225  0.61733847  0.32754563     0.08300
C622        C  0.41077381  0.64440365  0.39278185    -0.55200
C623        C  0.38899567  0.66724130  0.37321420     0.08900
H624        H  0.35042331  0.58531786  0.42470249     0.13400
H625        H  0.34313255  0.66510081  0.33387666    -0.00800
H626        H  0.41612386  0.57129769  0.33593808     0.13700
H627        H  0.43231113  0.65497757  0.41029426     0.13500
C628        C  0.38993953  0.60163318  0.10252160     0.85300
C629        C  0.39515825  0.60139323  0.14505839    -0.54900
C630        C  0.37249823  0.62474081  0.16508445     0.08200
C631        C  0.34557511  0.64466763  0.13923218     0.19200
C632        C  0.35018917  0.59098722  0.09722834    -0.55700
C633        C  0.32649207  0.61337905  0.11635417     0.08300
C634        C  0.39240894  0.64277400  0.09170943    -0.55200
C635        C  0.36996470  0.66554352  0.11143785     0.08900
H636        H  0.41495396  0.58358296  0.15810166     0.13400
H637        H  0.32691173  0.66426347  0.15271766    -0.00800
H638        H  0.34156472  0.56758489  0.08025399     0.13700
H639        H  0.41116800  0.65338731  0.07092393     0.13500
C640        C  0.39283234  0.89013975  0.10214241     0.85300
C641        C  0.39292614  0.84824265  0.09372199    -0.54900
C642        C  0.37035694  0.82790771  0.11611314     0.08200
C643        C  0.34784713  0.85286923  0.14331502     0.19200
C644        C  0.35346210  0.90195535  0.09726906    -0.55700
C645        C  0.32953144  0.88197443  0.11803898     0.08300
C646        C  0.40030669  0.89317302  0.14398891    -0.55200
C647        C  0.37637771  0.87447592  0.16590223     0.08900
H648        H  0.41003381  0.83559545  0.07242767     0.13400
H649        H  0.32886193  0.83852771  0.16216747    -0.00800
H650        H  0.34499828  0.92288843  0.07749692     0.13700
H651        H  0.42308501  0.90849174  0.15531906     0.13500
C652        C  0.39727277  0.89077394  0.39173376     0.85300
C653        C  0.40234698  0.89319241  0.34926715    -0.54900
C654        C  0.37831298  0.87226477  0.32905763     0.08200
C655        C  0.35277809  0.84928709  0.35438527     0.19200
C656        C  0.35714850  0.90024418  0.39907723    -0.55700
C657        C  0.33363801  0.87825474  0.37965289     0.08300
C658        C  0.40101900  0.84924706  0.39966478    -0.55200
C659        C  0.37838997  0.82729910  0.37990485     0.08900
H660        H  0.42351395  0.90977275  0.33640062     0.13400
H661        H  0.33263451  0.83189601  0.34003945    -0.00800
H662        H  0.34830881  0.92256427  0.41759706     0.13700
H663        H  0.42142941  0.83768780  0.41773784     0.13500
C664        C  0.37958188  0.90790914  0.22842451    -0.03000
C665        C  0.37820256  0.87436304  0.20758795     0.06700
C666        C  0.37682736  0.84048991  0.22688517    -0.03100
C667        C  0.37313471  0.83976347  0.26572670    -0.03100
C668        C  0.37707738  0.87289963  0.28709307     0.06800
C669        C  0.37963497  0.90723318  0.26774914    -0.03300
Br670      Br  0.37787160  0.95448341  0.29422713    -0.01900
Br671      Br  0.38043693  0.95546206  0.20371040    -0.02000
Br672      Br  0.36029015  0.79216333  0.28656681    -0.01900
Br673      Br  0.38472763  0.79384575  0.20157428    -0.01900
C674        C  0.40414061  0.72688235  0.11401960    -0.03000
C675        C  0.37141039  0.70698136  0.10945165     0.06700
C676        C  0.33897661  0.72695804  0.10752626    -0.03100
C677        C  0.33832966  0.76517866  0.11472027    -0.03100
C678        C  0.37067937  0.78602871  0.11504644     0.06800
C679        C  0.40399444  0.76618994  0.11504950    -0.03300
Br680      Br  0.44936707  0.79182769  0.12332233    -0.01900
Br681      Br  0.44910235  0.70104661  0.12176037    -0.02000
Br682      Br  0.29298206  0.78492672  0.13087984    -0.01900
Br683      Br  0.29510122  0.70299294  0.09211950    -0.01900
C684        C  0.41069362  0.62013832  0.26403858    -0.03000
C685        C  0.37866203  0.61761530  0.28583160     0.06700
C686        C  0.34514588  0.62197621  0.26810303    -0.03100
C687        C  0.34346755  0.63181023  0.23048290    -0.03100
C688        C  0.37475055  0.62896576  0.20721703     0.06800
C689        C  0.40874492  0.62600966  0.22523731    -0.03300
Br690      Br  0.45323725  0.63670962  0.19858565    -0.01900
Br691      Br  0.45782847  0.61584471  0.28655974    -0.02000
Br692      Br  0.29929873  0.65635918  0.21644362    -0.01900
Br693      Br  0.30031115  0.61087956  0.29369621    -0.01900
C694        C  0.37001403  0.72564819  0.40627902    -0.03000
C695        C  0.39032802  0.70829241  0.37762757     0.06700
C696        C  0.41145453  0.73034554  0.35363165    -0.03100
C697        C  0.40954502  0.76940343  0.35632509    -0.03100
C698        C  0.38309542  0.78629008  0.37965598     0.06800
C699        C  0.36430453  0.76430366  0.40560359    -0.03300
Br700      Br  0.33089683  0.78688341  0.44034342    -0.01900
Br701      Br  0.35055840  0.69664482  0.44682450    -0.02000
Br702      Br  0.44361577  0.79948970  0.32861250    -0.01900
Br703      Br  0.44374560  0.70739944  0.31800889    -0.01900
C704        C  0.23136416  0.60461568  0.15415389    -0.03000
C705        C  0.20920949  0.61157708  0.12306390     0.06700
C706        C  0.22665711  0.61480639  0.08766275    -0.03100
C707        C  0.26501492  0.61375087  0.08457073    -0.03100
C708        C  0.28625003  0.60752965  0.11629606     0.06800
C709        C  0.26857311  0.59784921  0.14937334    -0.03300
Br710      Br  0.29354727  0.56735743  0.18467593    -0.01900
Br711      Br  0.21430627  0.60882433  0.20439996    -0.02000
Br712      Br  0.28835044  0.61991374  0.03673739    -0.01900
Br713      Br  0.19907462  0.62567489  0.04370640    -0.01900
C714        C  0.15953176  0.76665458  0.13354040    -0.03000
C715        C  0.12780539  0.78882464  0.13231572     0.06700
C716        C  0.09412093  0.76954149  0.13253412    -0.03100
C717        C  0.09269848  0.73008839  0.13065813    -0.03100
C718        C  0.12488343  0.70864769  0.12820530     0.06800
C719        C  0.15809569  0.72777495  0.12853580    -0.03300
Br720      Br  0.20259063  0.70190924  0.11780387    -0.01900
Br721      Br  0.20564739  0.78641684  0.14650067    -0.02000
Br722      Br  0.04596189  0.70612443  0.13231774    -0.01900
Br723      Br  0.04918298  0.79605753  0.14050553    -0.01900
C724        C  0.27164621  0.86091652  0.08788228    -0.03000
C725        C  0.28972933  0.88508004  0.11269971     0.06700
C726        C  0.26985953  0.91408266  0.12980343    -0.03100
C727        C  0.23211298  0.91593210  0.12527702    -0.03100
C728        C  0.21365001  0.88521615  0.11018314     0.06800
C729        C  0.23345562  0.85926107  0.08852565    -0.03300
Br730      Br  0.20837983  0.82366886  0.05776819    -0.01900
Br731      Br  0.29882183  0.83260438  0.05120513    -0.02000
Br732      Br  0.20645135  0.96184099  0.13535637    -0.01900
Br733      Br  0.29391945  0.95123731  0.15918347    -0.01900
C734        C  0.15785018  0.90078065  0.27135568    -0.03000
C735        C  0.12861231  0.88411613  0.28961178     0.06700
C736        C  0.09729164  0.87530471  0.26946360    -0.03100
C737        C  0.09738237  0.87883775  0.23051196    -0.03100
C738        C  0.12988937  0.88810483  0.21130121     0.06800
C739        C  0.16025435  0.89898868  0.23251068    -0.03300
Br740      Br  0.20630319  0.90989057  0.21083624    -0.01900
Br741      Br  0.19125057  0.93135943  0.29913938    -0.02000
Br742      Br  0.05270391  0.87011831  0.20469105    -0.01900
Br743      Br  0.05402224  0.85897757  0.29534883    -0.01900
C744        C  0.23520985  0.87153880  0.41423039    -0.03000
C745        C  0.21657661  0.86832566  0.37982643     0.06700
C746        C  0.23821810  0.86809546  0.34680538    -0.03100
C747        C  0.27402785  0.88035192  0.34793595    -0.03100
C748        C  0.29311382  0.88085454  0.38138219     0.06800
C749        C  0.27336072  0.87638422  0.41485308    -0.03300
Br750      Br  0.29822690  0.87698620  0.46163223    -0.01900
Br751      Br  0.21018583  0.86337848  0.46086821    -0.02000
Br752      Br  0.29452162  0.90113775  0.30342503    -0.01900
Br753      Br  0.22609500  0.84358382  0.30050179    -0.01900
C754        C  0.13736286  0.58093915  0.23071622    -0.03000
C755        C  0.11963484  0.61177804  0.21520852     0.06700
C756        C  0.10098299  0.63660986  0.23893522    -0.03100
C757        C  0.10329096  0.63265446  0.27762589    -0.03100
C758        C  0.12921824  0.60827087  0.29254763     0.06800
C759        C  0.14476735  0.58085560  0.26908106    -0.03300
Br760      Br  0.17581803  0.54327091  0.28915988    -0.01900
Br761      Br  0.15122757  0.53902926  0.19960671    -0.02000
Br762      Br  0.06916219  0.65891970  0.30941595    -0.01900
Br763      Br  0.07108676  0.67499090  0.21890305    -0.01900
C764        C  0.23748128  0.65222379  0.38927385    -0.03000
C765        C  0.21935441  0.61774810  0.38866197     0.06700
C766        C  0.24039088  0.58498138  0.38673460    -0.03100
C767        C  0.27874484  0.58689382  0.38558383    -0.03100
C768        C  0.29686388  0.62189825  0.38388444     0.06800
C769        C  0.27512008  0.65445082  0.38352890    -0.03300
Br770      Br  0.29376010  0.70298409  0.37154759    -0.01900
Br771      Br  0.21188894  0.69736741  0.40124684    -0.02000
Br772      Br  0.30527040  0.54061403  0.38063852    -0.01900
Br773      Br  0.21685843  0.53715903  0.38295072    -0.01900
C774        C  0.12639504  0.76374029  0.34033607    -0.03000
C775        C  0.12332126  0.78434559  0.37386225     0.06700
C776        C  0.12399204  0.76480917  0.40787720    -0.03100
C777        C  0.12567113  0.72552613  0.40804120    -0.03100
C778        C  0.12977531  0.70494008  0.37422603     0.06800
C779        C  0.13332172  0.72528316  0.34066823    -0.03300
Br780      Br  0.15154897  0.70409326  0.29459421    -0.01900
Br781      Br  0.11858304  0.78669838  0.29276978    -0.02000
Br782      Br  0.12867833  0.70111766  0.45582215    -0.01900
Br783      Br  0.12596297  0.79119669  0.45502259    -0.01900
N784        N  0.45874742  0.56476520  0.54258653    -0.07300
N785        N  0.43336362  0.58979399  0.54918371    -0.59400
N786        N  0.04142690  0.54043919  0.57071147    -0.07000
N787        N  0.06507889  0.54814877  0.59691508    -0.61500
N788        N  0.04174545  0.56661550  0.54542361    -0.06600
N789        N  0.06544130  0.59273049  0.55408987    -0.59400
N790        N  0.45812203  0.53924357  0.56852145    -0.06300
N791        N  0.43223596  0.54651677  0.59329102    -0.61900
C792        C  0.41667572  0.57800583  0.58064133     0.94900
C793        C  0.08020181  0.58066769  0.58606849     0.94700
N794        N  0.04351574  0.92588418  0.54363704    -0.07500
N795        N  0.06876754  0.90105432  0.55118597    -0.60000
N796        N  0.45929743  0.95183129  0.56700107    -0.05600
N797        N  0.43356565  0.94473924  0.59157159    -0.61200
N798        N  0.46064739  0.92556776  0.54133735    -0.07500
N799        N  0.43612701  0.89978336  0.54823222    -0.60300
N800        N  0.04229126  0.95198862  0.56948718    -0.05200
N801        N  0.06655467  0.94535633  0.59516389    -0.61300
Mn802      Mn  0.50032658  0.99586294  0.56992063     1.18400
C803        C  0.08311961  0.91370496  0.58337386     0.97000
C804        C  0.41917673  0.91234181  0.57944201     0.97600
N805        N  0.04611390  0.56606224  0.95755037    -0.07500
N806        N  0.07174631  0.59102534  0.95120754    -0.63800
N807        N  0.46432950  0.53979860  0.92788094    -0.06300
N808        N  0.44145046  0.54778786  0.90109015    -0.64500
N809        N  0.46236382  0.56500140  0.95456619    -0.07000
N810        N  0.43772189  0.59024230  0.94672884    -0.64100
N811        N  0.04738906  0.53970618  0.93199014    -0.05900
N812        N  0.07382039  0.54606722  0.90801570    -0.64800
Mn813      Mn  0.50216682  0.56662616  0.49999084     1.10700
C814        C  0.08920495  0.57794409  0.92034993     0.98200
C815        C  0.42468230  0.57916042  0.91339444     0.98300
N816        N  0.46363842  0.92633593  0.95355629    -0.07000
N817        N  0.43832631  0.90163376  0.94615608    -0.62400
N818        N  0.04796175  0.95257109  0.93130243    -0.06400
N819        N  0.07416739  0.94592047  0.90700278    -0.60700
N820        N  0.04703490  0.92644324  0.95654968    -0.07700
N821        N  0.07256243  0.90146752  0.94979063    -0.62000
N822        N  0.46461088  0.95193074  0.92768830    -0.06700
N823        N  0.44007424  0.94495708  0.90205367    -0.59200
Mn824      Mn  0.00363892  0.92492694  0.99866531     1.20200
Mn825      Mn  0.00606516  0.49593649  0.92868768     1.10100
Cl826      Cl  0.00297683  0.49584238  0.49936539    -0.87100
C827        C  0.42355979  0.91364943  0.91415558     0.95200
C828        C  0.08973797  0.91418247  0.91897597     0.95000
C829        C  0.11558306  0.60020383  0.89690503     0.85300
C830        C  0.11417349  0.58860251  0.85590692    -0.54900
C831        C  0.13598492  0.60857193  0.83319491     0.08200
C832        C  0.15903491  0.63794162  0.85411087     0.19200
C833        C  0.15570483  0.59705023  0.90767556    -0.55700
C834        C  0.17877485  0.61662522  0.88499291     0.08300
C835        C  0.10766475  0.64224213  0.89648816    -0.55200
C836        C  0.13114218  0.66283624  0.87507406     0.08900
H837        H  0.09487811  0.56869173  0.84488883     0.13400
H838        H  0.17874910  0.65247730  0.83619796    -0.00800
H839        H  0.16493981  0.58088141  0.93109858     0.13700
H840        H  0.08523110  0.65459174  0.91183795     0.13500
C841        C  0.11338825  0.89008008  0.89421769     0.85300
C842        C  0.10331999  0.84857500  0.89560114    -0.54900
C843        C  0.12426891  0.82616761  0.87334733     0.08200
C844        C  0.15198673  0.84811934  0.85010014     0.19200
C845        C  0.15444110  0.89185288  0.90155299    -0.55700
C846        C  0.17541367  0.86931430  0.87864235     0.08300
C847        C  0.11004441  0.90028506  0.85342401    -0.55200
C848        C  0.12981158  0.87851182  0.83015498     0.08900
H849        H  0.08160728  0.83783421  0.91301333     0.13400
H850        H  0.16679057  0.82916622  0.83172334    -0.00800
H851        H  0.16574609  0.91092196  0.92194186     0.13700
H852        H  0.09311523  0.92267646  0.84325285     0.13500
C853        C  0.11033501  0.89287599  0.60628754     0.85300
C854        C  0.10844617  0.90434665  0.64756120    -0.54900
C855        C  0.13177484  0.88589714  0.66972935     0.08200
C856        C  0.15606339  0.85835970  0.64813106     0.19200
C857        C  0.14959360  0.89918925  0.59447472    -0.55700
C858        C  0.17390651  0.88130265  0.61616579     0.08300
C859        C  0.10601286  0.85020587  0.60583451    -0.55200
C860        C  0.12928869  0.83118291  0.62850930     0.08900
H861        H  0.08923177  0.92452687  0.65876265     0.13400
H862        H  0.17520399  0.84605766  0.66759454    -0.00800
H863        H  0.15759165  0.91665030  0.57130658     0.13700
H864        H  0.08660207  0.83636270  0.58809397     0.13500
C865        C  0.10513887  0.60354543  0.61026669     0.85300
C866        C  0.10280350  0.64589900  0.60450537    -0.54900
C867        C  0.12431699  0.66653769  0.62761991     0.08200
C868        C  0.14755556  0.64188069  0.65340301     0.19200
C869        C  0.14543862  0.59409145  0.60504360    -0.55700
C870        C  0.16837931  0.61461571  0.62686773     0.08300
C871        C  0.09750510  0.59792088  0.65175953    -0.55200
C872        C  0.11993522  0.61723681  0.67441053     0.08900
H873        H  0.08562330  0.65839727  0.58382814     0.13400
H874        H  0.16498778  0.65829898  0.67228239    -0.00800
H875        H  0.15497816  0.57315802  0.58536246     0.13700
H876        H  0.07697910  0.57914458  0.66254775     0.13500
C877        C  0.40031050  0.60320706  0.89018242     0.85300
C878        C  0.36020535  0.60224567  0.90198314    -0.54900
C879        C  0.33780128  0.62371896  0.88075025     0.08200
C880        C  0.35931251  0.64649235  0.85137599     0.19200
C881        C  0.40048420  0.59387779  0.84821663    -0.55700
C882        C  0.37977506  0.61733562  0.82755133     0.08300
C883        C  0.41075763  0.64439402  0.89279497    -0.55200
C884        C  0.38897924  0.66723204  0.87322908     0.08900
H885        H  0.35041288  0.58529641  0.92470255     0.13400
H886        H  0.34311813  0.66509326  0.83388921    -0.00800
H887        H  0.41612140  0.57129761  0.83594072     0.13700
H888        H  0.43229464  0.65496804  0.91030794     0.13500
C889        C  0.38993602  0.60163238  0.60252680     0.85300
C890        C  0.39515682  0.60139732  0.64506368    -0.54900
C891        C  0.37249748  0.62474685  0.66508910     0.08200
C892        C  0.34557315  0.64467061  0.63923661     0.19200
C893        C  0.35018403  0.59098603  0.59723811    -0.55700
C894        C  0.32648765  0.61337963  0.61636441     0.08300
C895        C  0.39240376  0.64277282  0.59171052    -0.55200
C896        C  0.36996053  0.66554485  0.61143842     0.08900
H897        H  0.41495269  0.58358778  0.65810751     0.13400
H898        H  0.32691064  0.66426676  0.65272215    -0.00800
H899        H  0.34155829  0.56758220  0.58026683     0.13700
H900        H  0.41116074  0.65338363  0.57092192     0.13500
C901        C  0.39283016  0.89014095  0.60214015     0.85300
C902        C  0.39291881  0.84824436  0.59371840    -0.54900
C903        C  0.37034799  0.82791173  0.61610959     0.08200
C904        C  0.34784186  0.85287528  0.64331335     0.19200
C905        C  0.35346107  0.90196246  0.59726919    -0.55700
C906        C  0.32952876  0.88198447  0.61804008     0.08300
C907        C  0.40030659  0.89317165  0.64398678    -0.55200
C908        C  0.37637585  0.87447687  0.66590079     0.08900
H909        H  0.41002682  0.83559491  0.57242561     0.13400
H910        H  0.32885490  0.83853579  0.66216539    -0.00800
H911        H  0.34499902  0.92289711  0.57749779     0.13700
H912        H  0.42308761  0.90848679  0.65531622     0.13500
C913        C  0.39728054  0.89076939  0.89173605     0.85300
C914        C  0.40235386  0.89318762  0.84926927    -0.54900
C915        C  0.37832121  0.87225808  0.82905971     0.08200
C916        C  0.35278877  0.84927761  0.85438878     0.19200
C917        C  0.35715501  0.90023510  0.89908027    -0.55700
C918        C  0.33364604  0.87824239  0.87965734     0.08300
C919        C  0.40103061  0.84924259  0.89966738    -0.55200
C920        C  0.37840206  0.82729223  0.87990904     0.08900
H921        H  0.42351974  0.90976926  0.83640281     0.13400
H922        H  0.33264664  0.83188402  0.84004376    -0.00800
H923        H  0.34831339  0.92255371  0.91760085     0.13700
H924        H  0.42144104  0.83768558  0.91774170     0.13500
C925        C  0.37958809  0.90790606  0.72842534    -0.03000
C926        C  0.37820157  0.87436128  0.70758721     0.06700
C927        C  0.37682043  0.84048748  0.72688372    -0.03100
C928        C  0.37313731  0.83975955  0.76572661    -0.03100
C929        C  0.37708393  0.87289459  0.78709407     0.06800
C930        C  0.37964209  0.90722853  0.76775028    -0.03300
Br931      Br  0.37788350  0.95447820  0.79422879    -0.01900
Br932      Br  0.38044983  0.95545996  0.70371259    -0.02000
Br933      Br  0.36030605  0.79215705  0.78656984    -0.01900
Br934      Br  0.38469481  0.79384137  0.70156857    -0.01900
C935        C  0.40413479  0.72688734  0.61401218    -0.03000
C936        C  0.37140456  0.70698404  0.60944918     0.06700
C937        C  0.33896897  0.72696004  0.60753071    -0.03100
C938        C  0.33832161  0.76518190  0.61472042    -0.03100
C939        C  0.37067062  0.78603259  0.61504440     0.06800
C940        C  0.40398610  0.76619515  0.61505018    -0.03300
Br941      Br  0.44935295  0.79183613  0.62334881    -0.01900
Br942      Br  0.44910158  0.70105460  0.62173340    -0.02000
Br943      Br  0.29297450  0.78493359  0.63087904    -0.01900
Br944      Br  0.29508913  0.70299237  0.59214024    -0.01900
C945        C  0.41069016  0.62014051  0.76404381    -0.03000
C946        C  0.37865753  0.61761871  0.78583640     0.06700
C947        C  0.34514250  0.62198561  0.76810674    -0.03100
C948        C  0.34346672  0.63182534  0.73048791    -0.03100
C949        C  0.37474942  0.62897495  0.70722184     0.06800
C950        C  0.40874285  0.62601453  0.72524257    -0.03300
Br951      Br  0.45323545  0.63671438  0.69859064    -0.01900
Br952      Br  0.45782477  0.61584033  0.78656383    -0.02000
Br953      Br  0.29930391  0.65639017  0.71645311    -0.01900
Br954      Br  0.30030535  0.61088586  0.79369457    -0.01900
C955        C  0.37001599  0.72564434  0.90629625    -0.03000
C956        C  0.39031768  0.70828321  0.87763908     0.06700
C957        C  0.41144396  0.73033114  0.85363821    -0.03100
C958        C  0.40954603  0.76938931  0.85633338    -0.03100
C959        C  0.38310311  0.78628250  0.87966688     0.06800
C960        C  0.36431237  0.76430075  0.90561913    -0.03300
Br961      Br  0.33091189  0.78688638  0.94036160    -0.01900
Br962      Br  0.35057220  0.69664737  0.94685225    -0.02000
Br963      Br  0.44362437  0.79946695  0.82862111    -0.01900
Br964      Br  0.44371952  0.70737803  0.81800613    -0.01900
C965        C  0.23135816  0.60462297  0.65417473    -0.03000
C966        C  0.20920158  0.61158757  0.62308621     0.06700
C967        C  0.22664832  0.61481797  0.58768457    -0.03100
C968        C  0.26500589  0.61375432  0.58458895    -0.03100
C969        C  0.28624386  0.60753184  0.61631197     0.06800
C970        C  0.26856819  0.59785742  0.64939263    -0.03300
Br971      Br  0.29354865  0.56738122  0.68470402    -0.01900
Br972      Br  0.21430003  0.60882372  0.70442172    -0.02000
Br973      Br  0.28833783  0.61991019  0.53675295    -0.01900
Br974      Br  0.19906587  0.62570203  0.54373202    -0.01900
C975        C  0.15952181  0.76666568  0.63359497    -0.03000
C976        C  0.12779681  0.78883746  0.63236868     0.06700
C977        C  0.09411100  0.76955579  0.63259283    -0.03100
C978        C  0.09268608  0.73010233  0.63071426    -0.03100
C979        C  0.12487009  0.70865967  0.62825790     0.06800
C980        C  0.15808351  0.72778555  0.62859273    -0.03300
Br981      Br  0.20257824  0.70191839  0.61786238    -0.01900
Br982      Br  0.20564118  0.78642973  0.64654150    -0.02000
Br983      Br  0.04594752  0.70614115  0.63236883    -0.01900
Br984      Br  0.04917519  0.79607498  0.64057007    -0.01900
C985        C  0.27164124  0.86093003  0.58788697    -0.03000
C986        C  0.28972639  0.88509336  0.61270256     0.06700
C987        C  0.26985763  0.91409573  0.62980808    -0.03100
C988        C  0.23211063  0.91594599  0.62528198    -0.03100
C989        C  0.21364612  0.88522827  0.61019249     0.06800
C990        C  0.23345075  0.85927243  0.58853539    -0.03300
Br991      Br  0.20837303  0.82367571  0.55778550    -0.01900
Br992      Br  0.29881407  0.83262261  0.55120449    -0.02000
Br993      Br  0.20645315  0.96186001  0.63534688    -0.01900
Br994      Br  0.29391931  0.95124688  0.65919153    -0.01900
C995        C  0.15787197  0.90077844  0.77137488    -0.03000
C996        C  0.12863365  0.88411212  0.78962985     0.06700
C997        C  0.09730848  0.87531405  0.76948331    -0.03100
C998        C  0.09739272  0.87886311  0.73053355    -0.03100
C999        C  0.12989761  0.88813195  0.71132041     0.06800
C1000       C  0.16026708  0.89900607  0.73252819    -0.03300
Br1001     Br  0.20630562  0.90993590  0.71084492    -0.01900
Br1002     Br  0.19128521  0.93133624  0.79916470    -0.02000
Br1003     Br  0.05270574  0.87016991  0.70471937    -0.01900
Br1004     Br  0.05403980  0.85898577  0.79536919    -0.01900
C1005       C  0.23522109  0.87151397  0.91424688    -0.03000
C1006       C  0.21658446  0.86829558  0.87984572     0.06700
C1007       C  0.23822339  0.86806027  0.84682261    -0.03100
C1008       C  0.27403175  0.88032225  0.84794713    -0.03100
C1009       C  0.29312107  0.88083354  0.88139131     0.06800
C1010       C  0.27337165  0.87636405  0.91486501    -0.03300
Br1011     Br  0.29824107  0.87697594  0.96164216    -0.01900
Br1012     Br  0.21020151  0.86335451  0.96088692    -0.02000
Br1013     Br  0.29451879  0.90110410  0.80343039    -0.01900
Br1014     Br  0.22610091  0.84353426  0.80052611    -0.01900
C1015       C  0.13735115  0.58093311  0.73073728    -0.03000
C1016       C  0.11962197  0.61177205  0.71523085     0.06700
C1017       C  0.10097793  0.63660920  0.73895904    -0.03100
C1018       C  0.10328156  0.63264899  0.77764894    -0.03100
C1019       C  0.12920707  0.60826358  0.79256939     0.06800
C1020       C  0.14475609  0.58084905  0.76910206    -0.03300
Br1021     Br  0.17580957  0.54326673  0.78917997    -0.01900
Br1022     Br  0.15122728  0.53902942  0.69962456    -0.02000
Br1023     Br  0.06915174  0.65891301  0.80943935    -0.01900
Br1024     Br  0.07111325  0.67501873  0.71893314    -0.01900
C1025       C  0.23747114  0.65221165  0.88929648    -0.03000
C1026       C  0.21934264  0.61773720  0.88868016     0.06700
C1027       C  0.24037635  0.58496930  0.88674510    -0.03100
C1028       C  0.27873025  0.58687916  0.88559059    -0.03100
C1029       C  0.29685141  0.62188272  0.88389286     0.06800
C1030       C  0.27510965  0.65443705  0.88354778    -0.03300
Br1031     Br  0.29375389  0.70297211  0.87158255    -0.01900
Br1032     Br  0.21188053  0.69735385  0.90128159    -0.02000
Br1033     Br  0.30525166  0.54059716  0.88064598    -0.01900
Br1034     Br  0.21683918  0.53714939  0.88295820    -0.01900
C1035       C  0.12638601  0.76373201  0.84035455    -0.03000
C1036       C  0.12330461  0.78433790  0.87387955     0.06700
C1037       C  0.12396284  0.76480159  0.90789568    -0.03100
C1038       C  0.12565258  0.72551899  0.90806065    -0.03100
C1039       C  0.12976475  0.70493284  0.87424665     0.06800
C1040       C  0.13331297  0.72527508  0.84068862    -0.03300
Br1041     Br  0.15154205  0.70408394  0.79461606    -0.01900
Br1042     Br  0.11858093  0.78668980  0.79278643    -0.02000
Br1043     Br  0.12866470  0.70111216  0.95584244    -0.01900
Br1044     Br  0.12589343  0.79118704  0.95504481    -0.01900
N1045       N  0.95873481  0.06473294  0.04261619    -0.07300
N1046       N  0.93334758  0.08975833  0.04921550    -0.59400
N1047       N  0.54143002  0.04049185  0.07069782    -0.07000
N1048       N  0.56507059  0.04821749  0.09690822    -0.61500
N1049       N  0.54174828  0.06666225  0.04540382    -0.06600
N1050       N  0.56543234  0.09278862  0.05407211    -0.59400
N1051       N  0.95810789  0.03920619  0.06854637    -0.06300
N1052       N  0.93221792  0.04647327  0.09331434    -0.61900
C1053       C  0.91665546  0.07796357  0.08066897     0.94900
C1054       C  0.58018611  0.08073980  0.08605918     0.94700
N1055       N  0.54353752  0.42594356  0.04363556    -0.07500
N1056       N  0.56878120  0.40111042  0.05119819    -0.60000
N1057       N  0.95928298  0.45178448  0.06701431    -0.05600
N1058       N  0.93354401  0.44469322  0.09157662    -0.61200
N1059       N  0.96063438  0.42552457  0.04134692    -0.07500
N1060       N  0.93610846  0.39974278  0.04823154    -0.60300
N1061       N  0.54231122  0.45205403  0.06947967    -0.05200
N1062       N  0.56656259  0.44542168  0.09516749    -0.61300
Mn1063     Mn  0.00031548  0.49581382  0.06994678     1.18400
C1064       C  0.58312188  0.41376377  0.08338988     0.97000
C1065       C  0.91915332  0.41229955  0.07943890     0.97600
N1066       N  0.54612831  0.06608167  0.45751723    -0.07500
N1067       N  0.57176552  0.09103887  0.45117585    -0.63800
N1068       N  0.96430822  0.03977750  0.42791432    -0.06300
N1069       N  0.94143258  0.04777506  0.40112434    -0.64500
N1070       N  0.96234632  0.06497646  0.45460307    -0.07000
N1071       N  0.93771050  0.09022450  0.44676911    -0.64100
N1072       N  0.54740692  0.03971979  0.43196301    -0.05900
N1073       N  0.57384516  0.04607074  0.40799431    -0.64800
Mn1074     Mn  0.00215748  0.06660063  0.00001750     1.10700
C1075       C  0.58923008  0.07794764  0.42032622     0.98200
C1076       C  0.92467212  0.07914954  0.41343231     0.98300
N1077       N  0.96362518  0.42631769  0.45356290    -0.07000
N1078       N  0.93831426  0.40161659  0.44615794    -0.62400
N1079       N  0.54797300  0.45258559  0.43129390    -0.06400
N1080       N  0.57417584  0.44592862  0.40699280    -0.60700
N1081       N  0.54704933  0.42646376  0.45654779    -0.07700
N1082       N  0.57257570  0.40148573  0.44979137    -0.62000
N1083       N  0.96460004  0.45191586  0.42769843    -0.06700
N1084       N  0.94006574  0.44494549  0.40206089    -0.59200
Mn1085     Mn  0.50365407  0.42495506  0.49866494     1.20200
Mn1086     Mn  0.50608479  0.99595275  0.42866143     1.10100
Cl1087     Cl  0.50298533  0.99587340  0.99935251    -0.87100
C1088       C  0.92355170  0.41363590  0.41415734     0.95200
C1089       C  0.58974722  0.41419298  0.41897135     0.95000
C1090       C  0.61560576  0.10020426  0.39688024     0.85300
C1091       C  0.61419732  0.08860449  0.35588174    -0.54900
C1092       C  0.63600735  0.10857760  0.33317118     0.08200
C1093       C  0.65905374  0.13794906  0.35409078     0.19200
C1094       C  0.65572583  0.09705138  0.40765121    -0.55700
C1095       C  0.67879310  0.11663111  0.38497148     0.08300
C1096       C  0.60768370  0.14224143  0.39646684    -0.55200
C1097       C  0.63115908  0.16284062  0.37505703     0.08900
H1098       H  0.59490133  0.06869503  0.34486265     0.13400
H1099       H  0.67876882  0.15248642  0.33618031    -0.00800
H1100       H  0.66496249  0.08087969  0.43107161     0.13700
H1101       H  0.58524534  0.15458623  0.41181301     0.13500
C1102       C  0.61340013  0.39008752  0.39421838     0.85300
C1103       C  0.60332051  0.34858401  0.39558903    -0.54900
C1104       C  0.62427154  0.32617573  0.37333738     0.08200
C1105       C  0.65200148  0.34812546  0.35010499     0.19200
C1106       C  0.65445003  0.39184738  0.40156881    -0.55700
C1107       C  0.67542319  0.36930902  0.37865823     0.08300
C1108       C  0.61007645  0.40030459  0.35342638    -0.55200
C1109       C  0.62984667  0.37853204  0.33015960     0.08900
H1110       H  0.58160378  0.33784398  0.41299653     0.13400
H1111       H  0.66680522  0.32916761  0.33173144    -0.00800
H1112       H  0.66575332  0.41091350  0.42196111     0.13700
H1113       H  0.59315694  0.42270274  0.34325330     0.13500
C1114       C  0.61032967  0.39293917  0.10631048     0.85300
C1115       C  0.60845418  0.40443225  0.14757874    -0.54900
C1116       C  0.63178651  0.38598727  0.16974551     0.08200
C1117       C  0.65606013  0.35843237  0.14815544     0.19200
C1118       C  0.64958496  0.39923116  0.09447906    -0.55700
C1119       C  0.67389715  0.38134700  0.11617060     0.08300
C1120       C  0.60599332  0.35027053  0.10588296    -0.55200
C1121       C  0.62927269  0.33125290  0.12855976     0.08900
H1122       H  0.58923931  0.42461212  0.15878004     0.13400
H1123       H  0.67520669  0.34614739  0.16762131    -0.00800
H1124       H  0.65758157  0.41667319  0.07129574     0.13700
H1125       H  0.58657509  0.33642473  0.08815337     0.13500
C1126       C  0.60511741  0.10362744  0.11025653     0.85300
C1127       C  0.60277969  0.14598220  0.10449695    -0.54900
C1128       C  0.62429452  0.16661917  0.12761381     0.08200
C1129       C  0.64752967  0.14196411  0.15339684     0.19200
C1130       C  0.64541865  0.09417749  0.10503686    -0.55700
C1131       C  0.66835656  0.11470330  0.12686325     0.08300
C1132       C  0.59748197  0.09800182  0.15174834    -0.55200
C1133       C  0.61990980  0.11731854  0.17440032     0.08900
H1134       H  0.58559631  0.15848166  0.08382300     0.13400
H1135       H  0.66495631  0.15838650  0.17227733    -0.00800
H1136       H  0.65496074  0.07324186  0.08535963     0.13700
H1137       H  0.57696122  0.07921897  0.16253552     0.13500
C1138       C  0.90030722  0.10319961  0.39022203     0.85300
C1139       C  0.86020758  0.10226114  0.40203863    -0.54900
C1140       C  0.83780816  0.12373312  0.38080185     0.08200
C1141       C  0.85931638  0.14648598  0.35141120     0.19200
C1142       C  0.90046262  0.09385229  0.34825986    -0.55700
C1143       C  0.87975765  0.11731143  0.32759216     0.08300
C1144       C  0.91077420  0.14438178  0.39281391    -0.55200
C1145       C  0.88899867  0.16722051  0.37324512     0.08900
H1146       H  0.85041282  0.08532064  0.42476400     0.13400
H1147       H  0.84312177  0.16508750  0.33392446    -0.00800
H1148       H  0.91608843  0.07126251  0.33598647     0.13700
H1149       H  0.93231902  0.15495312  0.41031835     0.13500
C1150       C  0.88991304  0.10158830  0.10255809     0.85300
C1151       C  0.89512975  0.10134634  0.14509570    -0.54900
C1152       C  0.87247446  0.12469817  0.16512404     0.08200
C1153       C  0.84555352  0.14462971  0.13927091     0.19200
C1154       C  0.85015836  0.09094973  0.09726560    -0.55700
C1155       C  0.82646413  0.11334625  0.11639298     0.08300
C1156       C  0.89238660  0.14273025  0.09174821    -0.55200
C1157       C  0.86994333  0.16550254  0.11147520     0.08900
H1158       H  0.91492037  0.08352927  0.15813768     0.13400
H1159       H  0.82689101  0.16422787  0.15275314    -0.00800
H1160       H  0.84152980  0.06755071  0.08028926     0.13700
H1161       H  0.91114499  0.15334187  0.07096122     0.13500
C1162       C  0.89280522  0.39009815  0.10213254     0.85300
C1163       C  0.89288882  0.34820122  0.09371209    -0.54900
C1164       C  0.87031877  0.32787052  0.11610713     0.08200
C1165       C  0.84781375  0.35283805  0.14330798     0.19200
C1166       C  0.85343971  0.40192280  0.09725909    -0.55700
C1167       C  0.82950536  0.38194825  0.11802924     0.08300
C1168       C  0.90028073  0.39313191  0.14397838    -0.55200
C1169       C  0.87634924  0.37444192  0.16589340     0.08900
H1170       H  0.90999161  0.33555124  0.07241536     0.13400
H1171       H  0.82882629  0.33849903  0.16216049    -0.00800
H1172       H  0.84498060  0.42285790  0.07748664     0.13700
H1173       H  0.92306077  0.40844845  0.15530820     0.13500
C1174       C  0.89728011  0.39075533  0.39173262     0.85300
C1175       C  0.90234667  0.39318192  0.34926475    -0.54900
C1176       C  0.87831667  0.37224799  0.32905476     0.08200
C1177       C  0.85279306  0.34925896  0.35438668     0.19200
C1178       C  0.85715570  0.40021059  0.39908585    -0.55700
C1179       C  0.83364976  0.37821647  0.37966382     0.08300
C1180       C  0.90104193  0.34922844  0.39965636    -0.55200
C1181       C  0.87841535  0.32727591  0.37989950     0.08900
H1182       H  0.92350984  0.40976782  0.33639917     0.13400
H1183       H  0.83264999  0.33186416  0.34004585    -0.00800
H1184       H  0.84831189  0.42252474  0.41761091     0.13700
H1185       H  0.92145643  0.33767338  0.41772737     0.13500
C1186       C  0.87955963  0.40788411  0.22841109    -0.03000
C1187       C  0.87817985  0.37433602  0.20757885     0.06700
C1188       C  0.87682296  0.34046647  0.22687967    -0.03100
C1189       C  0.87312962  0.33974314  0.26572110    -0.03100
C1190       C  0.87707768  0.37288068  0.28708690     0.06800
C1191       C  0.87963381  0.40721257  0.26773659    -0.03300
Br1192     Br  0.87790251  0.45446854  0.29420479    -0.01900
Br1193     Br  0.88038935  0.45543185  0.20368663    -0.02000
Br1194     Br  0.86026832  0.29214478  0.28655339    -0.01900
Br1195     Br  0.88476332  0.29382807  0.20157262    -0.01900
C1196       C  0.90411088  0.22684672  0.11403737    -0.03000
C1197       C  0.87138296  0.20694071  0.10947793     0.06700
C1198       C  0.83894708  0.22691383  0.10754546    -0.03100
C1199       C  0.83829481  0.26513578  0.11473494    -0.03100
C1200       C  0.87064316  0.28599054  0.11505043     0.06800
C1201       C  0.90396122  0.26615465  0.11504900    -0.03300
Br1202     Br  0.94933866  0.29179703  0.12328641    -0.01900
Br1203     Br  0.94907409  0.20101717  0.12179405    -0.02000
Br1204     Br  0.79294174  0.28487710  0.13089595    -0.01900
Br1205     Br  0.79507915  0.20294407  0.09212348    -0.01900
C1206       C  0.91066877  0.12009563  0.26408509    -0.03000
C1207       C  0.87863607  0.11758501  0.28587800     0.06700
C1208       C  0.84512209  0.12195904  0.26814843    -0.03100
C1209       C  0.84344990  0.13179231  0.23052743    -0.03100
C1210       C  0.87472978  0.12892308  0.20725902     0.06800
C1211       C  0.90872294  0.12595339  0.22528070    -0.03300
Br1212     Br  0.95322132  0.13662133  0.19862618    -0.01900
Br1213     Br  0.95780170  0.11581715  0.28661490    -0.02000
Br1214     Br  0.79930876  0.15639897  0.21649984    -0.01900
Br1215     Br  0.80027956  0.11089879  0.29374443    -0.01900
C1216       C  0.87007937  0.22563562  0.40632869    -0.03000
C1217       C  0.89034398  0.20827052  0.37764678     0.06700
C1218       C  0.91143389  0.23031369  0.35360923    -0.03100
C1219       C  0.90953541  0.26937144  0.35629663    -0.03100
C1220       C  0.88312032  0.28626732  0.37966093     0.06800
C1221       C  0.86437464  0.26429148  0.40565280    -0.03300
Br1222     Br  0.83104201  0.28688438  0.44045855    -0.01900
Br1223     Br  0.85067789  0.19664304  0.44690884    -0.02000
Br1224     Br  0.94359106  0.29944317  0.32854873    -0.01900
Br1225     Br  0.94366458  0.20735577  0.31793896    -0.01900
C1226       C  0.73132531  0.10471619  0.15419351    -0.03000
C1227       C  0.70917833  0.11166695  0.12309458     0.06700
C1228       C  0.72663237  0.11485576  0.08769259    -0.03100
C1229       C  0.76498869  0.11373742  0.08459968    -0.03100
C1230       C  0.78621677  0.10752103  0.11633125     0.06800
C1231       C  0.76852688  0.09790220  0.14941986    -0.03300
Br1232     Br  0.79345959  0.06740392  0.18474583    -0.01900
Br1233     Br  0.71427868  0.10901165  0.20443929    -0.02000
Br1234     Br  0.78832888  0.11980033  0.03675551    -0.01900
Br1235     Br  0.69906721  0.12576526  0.04373457    -0.01900
C1236       C  0.65950479  0.26673651  0.13366518    -0.03000
C1237       C  0.62778077  0.28891023  0.13242987     0.06700
C1238       C  0.59409438  0.26963010  0.13264209    -0.03100
C1239       C  0.59266834  0.23017903  0.13074425    -0.03100
C1240       C  0.62485056  0.20873884  0.12826681     0.06800
C1241       C  0.65806541  0.22786232  0.12862180    -0.03300
Br1242     Br  0.70256107  0.20200661  0.11786453    -0.01900
Br1243     Br  0.70561238  0.28647036  0.14671535    -0.02000
Br1244     Br  0.54593261  0.20621527  0.13240569    -0.01900
Br1245     Br  0.54915928  0.29614290  0.14063634    -0.01900
C1246       C  0.77161007  0.36087838  0.08790904    -0.03000
C1247       C  0.78970674  0.38506963  0.11268745     0.06700
C1248       C  0.76985794  0.41412529  0.12972561    -0.03100
C1249       C  0.73211156  0.41598247  0.12520641    -0.03100
C1250       C  0.71363286  0.38524444  0.11017856     0.06800
C1251       C  0.73342024  0.35923960  0.08856491    -0.03300
Br1252     Br  0.70832274  0.32360614  0.05787426    -0.01900
Br1253     Br  0.79876442  0.33254306  0.05123302    -0.02000
Br1254     Br  0.70647539  0.46192653  0.13518578    -0.01900
Br1255     Br  0.79394968  0.45135697  0.15898075    -0.01900
C1256       C  0.65789493  0.40084868  0.27138564    -0.03000
C1257       C  0.62867378  0.38414051  0.28963657     0.06700
C1258       C  0.59734994  0.37533226  0.26949359    -0.03100
C1259       C  0.59742414  0.37889679  0.23054743    -0.03100
C1260       C  0.62991194  0.38821662  0.21133366     0.06800
C1261       C  0.66027346  0.39912100  0.23253523    -0.03300
Br1262     Br  0.70626676  0.41018872  0.21081852    -0.01900
Br1263     Br  0.69130450  0.43139749  0.29919028    -0.02000
Br1264     Br  0.55274421  0.37016999  0.20473703    -0.01900
Br1265     Br  0.55408895  0.35898532  0.29538321    -0.01900
C1266       C  0.73522905  0.37149906  0.41426132    -0.03000
C1267       C  0.71659120  0.36829129  0.37985965     0.06700
C1268       C  0.73822612  0.36806550  0.34683292    -0.03100
C1269       C  0.77403739  0.38031482  0.34795924    -0.03100
C1270       C  0.79312731  0.38080822  0.38140211     0.06800
C1271       C  0.77338048  0.37633505  0.41487669    -0.03300
Br1272     Br  0.79825469  0.37692152  0.46165113    -0.01900
Br1273     Br  0.71020921  0.36335799  0.46090695    -0.02000
Br1274     Br  0.79453371  0.40109533  0.30344566    -0.01900
Br1275     Br  0.72608740  0.34358694  0.30051527    -0.01900
C1276       C  0.63736296  0.08099503  0.23069678    -0.03000
C1277       C  0.61961136  0.11183278  0.21521554     0.06700
C1278       C  0.60095997  0.13664647  0.23896132    -0.03100
C1279       C  0.60328273  0.13267296  0.27764771    -0.03100
C1280       C  0.62921697  0.10828391  0.29254784     0.06800
C1281       C  0.64476553  0.08088379  0.26906166    -0.03300
Br1282     Br  0.67580970  0.04327870  0.28911257    -0.01900
Br1283     Br  0.65129152  0.03913880  0.19954186    -0.02000
Br1284     Br  0.56916946  0.15893198  0.30946116    -0.01900
Br1285     Br  0.57105744  0.17504038  0.21896279    -0.01900
C1286       C  0.73748237  0.15222315  0.38930091    -0.03000
C1287       C  0.71935721  0.11774675  0.38866620     0.06700
C1288       C  0.74039132  0.08497946  0.38672935    -0.03100
C1289       C  0.77874419  0.08689033  0.38561143    -0.03100
C1290       C  0.79686268  0.12189541  0.38393643     0.06800
C1291       C  0.77512407  0.15444998  0.38358403    -0.03300
Br1292     Br  0.79378715  0.20298708  0.37165616    -0.01900
Br1293     Br  0.71188028  0.19736774  0.40124897    -0.02000
Br1294     Br  0.80527264  0.04061045  0.38068305    -0.01900
Br1295     Br  0.71685880  0.03716292  0.38286537    -0.01900
C1296       C  0.62639461  0.26373936  0.34034275    -0.03000
C1297       C  0.62330781  0.28434492  0.37386767     0.06700
C1298       C  0.62396476  0.26480748  0.40788266    -0.03100
C1299       C  0.62564919  0.22552404  0.40804680    -0.03100
C1300       C  0.62977268  0.20493830  0.37423263     0.06800
C1301       C  0.63332544  0.22528286  0.34067639    -0.03300
Br1302     Br  0.65156011  0.20409461  0.29460445    -0.01900
Br1303     Br  0.61859647  0.28669782  0.29277449    -0.02000
Br1304     Br  0.62863057  0.20111746  0.45583085    -0.01900
Br1305     Br  0.62590801  0.29119472  0.45503002    -0.01900
N1306       N  0.95873194  0.06472517  0.54261415    -0.07300
N1307       N  0.93334443  0.08975034  0.54920903    -0.59400
N1308       N  0.54142886  0.04047949  0.57068443    -0.07000
N1309       N  0.56507715  0.04819298  0.59688983    -0.61500
N1310       N  0.54174200  0.06665738  0.54539845    -0.06600
N1311       N  0.56542935  0.09277991  0.55406978    -0.59400
N1312       N  0.95810146  0.03919757  0.56854296    -0.06300
N1313       N  0.93220820  0.04646383  0.59330683    -0.61900
C1314       C  0.91664871  0.07795455  0.58065909     0.94900
C1315       C  0.58019074  0.08071764  0.58604866     0.94700
N1316       N  0.54352759  0.42592224  0.54363870    -0.07500
N1317       N  0.56876582  0.40108236  0.55120042    -0.60000
N1318       N  0.95928701  0.45179166  0.56701462    -0.05600
N1319       N  0.93355031  0.44469671  0.59157949    -0.61200
N1320       N  0.96063736  0.42553318  0.54134563    -0.07500
N1321       N  0.93611259  0.39975009  0.54823100    -0.60300
N1322       N  0.54230464  0.45203064  0.56948516    -0.05200
N1323       N  0.56655323  0.44538903  0.59517428    -0.61300
Mn1324     Mn  0.00032085  0.49582390  0.56994185     1.18400
C1325       C  0.58310752  0.41372813  0.58339450     0.97000
C1326       C  0.91915867  0.41230311  0.57944075     0.97600
N1327       N  0.54613279  0.06608580  0.95752369    -0.07500
N1328       N  0.57176736  0.09104516  0.95118005    -0.63800
N1329       N  0.96431874  0.03977630  0.92790700    -0.06300
N1330       N  0.94144296  0.04776736  0.90111513    -0.64500
N1331       N  0.96235217  0.06497708  0.95459403    -0.07000
N1332       N  0.93771289  0.09022061  0.94675556    -0.64100
N1333       N  0.54740793  0.03972594  0.93196747    -0.05900
N1334       N  0.57384127  0.04608045  0.90799434    -0.64800
Mn1335     Mn  0.00215280  0.06659518  0.50002127     1.10700
C1336       C  0.58922621  0.07795736  0.92032614     0.98200
C1337       C  0.92467669  0.07913991  0.91341899     0.98300
N1338       N  0.96362044  0.42630797  0.95356577    -0.07000
N1339       N  0.93831540  0.40160130  0.94615825    -0.62400
N1340       N  0.54798035  0.45259566  0.93129417    -0.06400
N1341       N  0.57418294  0.44593881  0.90699278    -0.60700
N1342       N  0.54705711  0.42647408  0.95654787    -0.07700
N1343       N  0.57258288  0.40149575  0.94979131    -0.62000
N1344       N  0.96458989  0.45190858  0.92770349    -0.06700
N1345       N  0.94005741  0.44493440  0.90206498    -0.59200
Mn1346     Mn  0.50366287  0.42496484  0.99866345     1.20200
Mn1347     Mn  0.50608569  0.99595871  0.92866762     1.10100
Cl1348     Cl  0.50298157  0.99586792  0.49934515    -0.87100
C1349       C  0.92355059  0.41361958  0.91415857     0.95200
C1350       C  0.58975368  0.41420270  0.91897098     0.95000
C1351       C  0.61560111  0.10021380  0.89688077     0.85300
C1352       C  0.61419677  0.08860705  0.85588455    -0.54900
C1353       C  0.63600669  0.10857683  0.83317197     0.08200
C1354       C  0.65905089  0.13795358  0.85408915     0.19200
C1355       C  0.65571948  0.09706469  0.90765660    -0.55700
C1356       C  0.67878837  0.11664019  0.88497537     0.08300
C1357       C  0.60767726  0.14225040  0.89646105    -0.55200
C1358       C  0.63115454  0.16284748  0.87505135     0.08900
H1359       H  0.59490278  0.06869451  0.84486710     0.13400
H1360       H  0.67876658  0.15248937  0.83617786    -0.00800
H1361       H  0.66495413  0.08089674  0.93108043     0.13700
H1362       H  0.58523901  0.15459685  0.91180605     0.13500
C1363       C  0.61340220  0.39009513  0.89421678     0.85300
C1364       C  0.60331796  0.34859229  0.89558770    -0.54900
C1365       C  0.62426621  0.32618213  0.87333503     0.08200
C1366       C  0.65199810  0.34812881  0.85010403     0.19200
C1367       C  0.65445241  0.39185006  0.90156725    -0.55700
C1368       C  0.67542289  0.36930835  0.87865788     0.08300
C1369       C  0.61007806  0.40031198  0.85342423    -0.55200
C1370       C  0.62984564  0.37853627  0.83015824     0.08900
H1371       H  0.58160078  0.33785433  0.91299597     0.13400
H1372       H  0.66679704  0.32917024  0.83173062    -0.00800
H1373       H  0.66575759  0.41091471  0.92195974     0.13700
H1374       H  0.59315897  0.42271022  0.84325068     0.13500
C1375       C  0.61032301  0.39290096  0.60630762     0.85300
C1376       C  0.60845273  0.40438876  0.64757710    -0.54900
C1377       C  0.63179007  0.38594407  0.66973899     0.08200
C1378       C  0.65606453  0.35839574  0.64814246     0.19200
C1379       C  0.64957678  0.39920031  0.59447216    -0.55700
C1380       C  0.67389426  0.38131613  0.61615829     0.08300
C1381       C  0.60599450  0.35023003  0.60587587    -0.55200
C1382       C  0.62928092  0.33121278  0.62854746     0.08900
H1383       H  0.58923799  0.42456659  0.65878272     0.13400
H1384       H  0.67521391  0.34611305  0.66760504    -0.00800
H1385       H  0.65756831  0.41664735  0.57129094     0.13700
H1386       H  0.58657671  0.33638337  0.58814652     0.13500
C1387       C  0.60512670  0.10359084  0.61025188     0.85300
C1388       C  0.60281122  0.14594571  0.60449291    -0.54900
C1389       C  0.62432455  0.16657216  0.62762015     0.08200
C1390       C  0.64754441  0.14190319  0.65340750     0.19200
C1391       C  0.64542362  0.09412069  0.60504249    -0.55700
C1392       C  0.66836405  0.11463463  0.62687595     0.08300
C1393       C  0.59747694  0.09796646  0.65174187    -0.55200
C1394       C  0.61990912  0.11726876  0.67440120     0.08900
H1395       H  0.58564028  0.15845371  0.58381330     0.13400
H1396       H  0.66497649  0.15830918  0.67229761    -0.00800
H1397       H  0.65496254  0.07318753  0.58536065     0.13700
H1398       H  0.57694244  0.07919539  0.66252234     0.13500
C1399       C  0.90030868  0.10318350  0.89020358     0.85300
C1400       C  0.86020625  0.10224136  0.90201477    -0.54900
C1401       C  0.83780625  0.12371289  0.88077617     0.08200
C1402       C  0.85931679  0.14646434  0.85138699     0.19200
C1403       C  0.90047017  0.09383509  0.84824156    -0.55700
C1404       C  0.87976315  0.11729035  0.82757164     0.08300
C1405       C  0.91077087  0.14436624  0.89279481    -0.55200
C1406       C  0.88899491  0.16720170  0.87322375     0.08900
H1407       H  0.85041126  0.08530271  0.92474136     0.13400
H1408       H  0.84312396  0.16506268  0.83389567    -0.00800
H1409       H  0.91610058  0.07124762  0.83597007     0.13700
H1410       H  0.93231202  0.15494096  0.91030200     0.13500
C1411       C  0.88990835  0.10157978  0.60254501     0.85300
C1412       C  0.89512541  0.10133581  0.64508137    -0.54900
C1413       C  0.87246978  0.12468585  0.66510968     0.08200
C1414       C  0.84554910  0.14461940  0.63925942     0.19200
C1415       C  0.85015576  0.09093984  0.59725221    -0.55700
C1416       C  0.82646203  0.11333401  0.61638114     0.08300
C1417       C  0.89238143  0.14272188  0.59173541    -0.55200
C1418       C  0.86993940  0.16549395  0.61146412     0.08900
H1419       H  0.91491584  0.08351810  0.65812312     0.13400
H1420       H  0.82688806  0.16421637  0.65274667    -0.00800
H1421       H  0.84152765  0.06753985  0.58027669     0.13700
H1422       H  0.91113910  0.15333368  0.57094783     0.13500
C1423       C  0.89280878  0.39009709  0.60213229     0.85300
C1424       C  0.89290147  0.34819935  0.59371214    -0.54900
C1425       C  0.87032923  0.32786411  0.61610138     0.08200
C1426       C  0.84781695  0.35282715  0.64329957     0.19200
C1427       C  0.85344041  0.40191228  0.59725126    -0.55700
C1428       C  0.82950609  0.38193139  0.61801639     0.08300
C1429       C  0.90027580  0.39313154  0.64398021    -0.55200
C1430       C  0.87634528  0.37443460  0.66589135     0.08900
H1431       H  0.91000895  0.33555295  0.57241726     0.13400
H1432       H  0.82883000  0.33848638  0.66215063    -0.00800
H1433       H  0.84498039  0.42284658  0.57747855     0.13700
H1434       H  0.92305198  0.40845131  0.65531397     0.13500
C1435       C  0.89728173  0.39073586  0.89173350     0.85300
C1436       C  0.90235246  0.39315847  0.84926587    -0.54900
C1437       C  0.87832472  0.37222211  0.82905585     0.08200
C1438       C  0.85279794  0.34923556  0.85438691     0.19200
C1439       C  0.85715699  0.40019213  0.89908144    -0.55700
C1440       C  0.83365227  0.37819588  0.87966018     0.08300
C1441       C  0.90104199  0.34920960  0.89966252    -0.55200
C1442       C  0.87841736  0.32725517  0.87990509     0.08900
H1443       H  0.92351333  0.40974717  0.83639992     0.13400
H1444       H  0.83265854  0.33183807  0.84004202    -0.00800
H1445       H  0.84831194  0.42250834  0.91760350     0.13700
H1446       H  0.92145467  0.33765618  0.91773665     0.13500
C1447       C  0.87955064  0.40786658  0.72841608    -0.03000
C1448       C  0.87817411  0.37432102  0.70757870     0.06700
C1449       C  0.87682325  0.34044800  0.72687682    -0.03100
C1450       C  0.87314650  0.33971968  0.76572074    -0.03100
C1451       C  0.87708518  0.37285658  0.78708819     0.06800
C1452       C  0.87962551  0.40719068  0.76774146    -0.03300
Br1453     Br  0.87786971  0.45444152  0.79421748    -0.01900
Br1454     Br  0.88037422  0.45541831  0.70369988    -0.02000
Br1455     Br  0.86032617  0.29211479  0.78656262    -0.01900
Br1456     Br  0.88474178  0.29381020  0.70156142    -0.01900
C1457       C  0.90411256  0.22683649  0.61402438    -0.03000
C1458       C  0.87138242  0.20693275  0.60946882     0.06700
C1459       C  0.83894847  0.22690890  0.60753895    -0.03100
C1460       C  0.83830046  0.26513178  0.61472299    -0.03100
C1461       C  0.87065059  0.28598386  0.61503794     0.06800
C1462       C  0.90396643  0.26614471  0.61503776    -0.03300
Br1463     Br  0.94934423  0.29178304  0.62328408    -0.01900
Br1464     Br  0.94907453  0.20100358  0.62177428    -0.02000
Br1465     Br  0.79294860  0.28487804  0.63087878    -0.01900
Br1466     Br  0.79507469  0.20294092  0.59213347    -0.01900
C1467       C  0.91067011  0.12008247  0.76406342    -0.03000
C1468       C  0.87863982  0.11756018  0.78585811     0.06700
C1469       C  0.84512266  0.12192022  0.76813154    -0.03100
C1470       C  0.84344291  0.13175404  0.73051134    -0.03100
C1471       C  0.87472404  0.12890530  0.70724288     0.06800
C1472       C  0.90871951  0.12594498  0.72526077    -0.03300
Br1473     Br  0.95321301  0.13662401  0.69860170    -0.01900
Br1474     Br  0.95780567  0.11580837  0.78658698    -0.02000
Br1475     Br  0.79927968  0.15631686  0.71647830    -0.01900
Br1476     Br  0.80028866  0.11083441  0.79373125    -0.01900
C1477       C  0.87004398  0.22560869  0.90629961    -0.03000
C1478       C  0.89033367  0.20825009  0.87763258     0.06700
C1479       C  0.91145167  0.23029674  0.85362434    -0.03100
C1480       C  0.90955775  0.26935395  0.85632306    -0.03100
C1481       C  0.88312342  0.28624677  0.87966688     0.06800
C1482       C  0.86434765  0.26426585  0.90563163    -0.03300
Br1483     Br  0.83098692  0.28685339  0.94041232    -0.01900
Br1484     Br  0.85059851  0.19660517  0.94685094    -0.02000
Br1485     Br  0.94363607  0.29942911  0.82860823    -0.01900
Br1486     Br  0.94370804  0.20734295  0.81797490    -0.01900
C1487       C  0.73133359  0.10460999  0.65418756    -0.03000
C1488       C  0.70918316  0.11159719  0.62310002     0.06700
C1489       C  0.72663049  0.11482936  0.58770021    -0.03100
C1490       C  0.76498562  0.11373173  0.58460217    -0.03100
C1491       C  0.78621895  0.10749460  0.61632475     0.06800
C1492       C  0.76853942  0.09782449  0.64940406    -0.03300
Br1493     Br  0.79350402  0.06732273  0.68470558    -0.01900
Br1494     Br  0.71427639  0.10880920  0.70443501    -0.02000
Br1495     Br  0.78831863  0.11985076  0.53676197    -0.01900
Br1496     Br  0.69905475  0.12576406  0.54375624    -0.01900
C1497       C  0.65952603  0.26669801  0.63367135    -0.03000
C1498       C  0.62779845  0.28886784  0.63241838     0.06700
C1499       C  0.59411567  0.26958176  0.63262946    -0.03100
C1500       C  0.59269524  0.23013040  0.63073687    -0.03100
C1501       C  0.62488086  0.20869251  0.62827994     0.06800
C1502       C  0.65809382  0.22781926  0.62865113    -0.03300
Br1503     Br  0.70260112  0.20195458  0.61796579    -0.01900
Br1504     Br  0.70562994  0.28644569  0.64671333    -0.02000
Br1505     Br  0.54595907  0.20616384  0.63238356    -0.01900
Br1506     Br  0.54917599  0.29608716  0.64062255    -0.01900
C1507       C  0.77160930  0.36086571  0.58788588    -0.03000
C1508       C  0.78970574  0.38504799  0.61267465     0.06700
C1509       C  0.76985192  0.41408289  0.62974181    -0.03100
C1510       C  0.73210671  0.41594531  0.62521748    -0.03100
C1511       C  0.71362927  0.38521920  0.61016478     0.06800
C1512       C  0.73341905  0.35922041  0.58854574    -0.03300
Br1513     Br  0.70832351  0.32357064  0.55787123    -0.01900
Br1514     Br  0.79876289  0.33253341  0.55120735    -0.02000
Br1515     Br  0.70646643  0.46187556  0.63525268    -0.01900
Br1516     Br  0.79393183  0.45126515  0.65906822    -0.01900
C1517       C  0.65790336  0.40081652  0.77137745    -0.03000
C1518       C  0.62867161  0.38413585  0.78963417     0.06700
C1519       C  0.59734947  0.37532100  0.76949137    -0.03100
C1520       C  0.59742834  0.37886846  0.73054327    -0.03100
C1521       C  0.62992059  0.38817168  0.71132794     0.06800
C1522       C  0.66028860  0.39906065  0.73252890    -0.03300
Br1523     Br  0.70630839  0.41003885  0.71082340    -0.01900
Br1524     Br  0.69132505  0.43136260  0.79916884    -0.02000
Br1525     Br  0.55275216  0.37012164  0.70473121    -0.01900
Br1526     Br  0.55408901  0.35897424  0.79538187    -0.01900
C1527       C  0.73523033  0.37149519  0.91426215    -0.03000
C1528       C  0.71659125  0.36828171  0.87986132     0.06700
C1529       C  0.73822686  0.36804054  0.84683532    -0.03100
C1530       C  0.77403863  0.38028721  0.84795703    -0.03100
C1531       C  0.79312971  0.38078790  0.88139896     0.06800
C1532       C  0.77338296  0.37632505  0.91487558    -0.03300
Br1533     Br  0.79825903  0.37691255  0.96164976    -0.01900
Br1534     Br  0.71021103  0.36336518  0.96090992    -0.02000
Br1535     Br  0.79453304  0.40105071  0.80343510    -0.01900
Br1536     Br  0.72609437  0.34353304  0.80053119    -0.01900
C1537       C  0.63731735  0.08093885  0.73071011    -0.03000
C1538       C  0.61959577  0.11178862  0.71521708     0.06700
C1539       C  0.60096884  0.13662874  0.73895432    -0.03100
C1540       C  0.60329035  0.13266671  0.77764144    -0.03100
C1541       C  0.62921478  0.10827157  0.79254838     0.06800
C1542       C  0.64473348  0.08084375  0.76907284    -0.03300
Br1543     Br  0.67575441  0.04322422  0.78913446    -0.01900
Br1544     Br  0.65117980  0.03904390  0.69957671    -0.02000
Br1545     Br  0.56917400  0.15893284  0.80944462    -0.01900
Br1546     Br  0.57109756  0.17504134  0.71894470    -0.01900
C1547       C  0.73748245  0.15222260  0.88929512    -0.03000
C1548       C  0.71935254  0.11774970  0.88867017     0.06700
C1549       C  0.74038160  0.08497898  0.88673684    -0.03100
C1550       C  0.77873476  0.08688358  0.88560646    -0.03100
C1551       C  0.79685880  0.12188500  0.88391684     0.06800
C1552       C  0.77512222  0.15444277  0.88355953    -0.03300
Br1553     Br  0.79377354  0.20297175  0.87158041    -0.01900
Br1554     Br  0.71188852  0.19737016  0.90125500    -0.02000
Br1555     Br  0.80525378  0.04059884  0.88067144    -0.01900
Br1556     Br  0.71684049  0.03716504  0.88289779    -0.01900
C1557       C  0.62639073  0.26374595  0.84033824    -0.03000
C1558       C  0.62330140  0.28435143  0.87386366     0.06700
C1559       C  0.62396115  0.26481419  0.90787844    -0.03100
C1560       C  0.62564861  0.22553092  0.90804232    -0.03100
C1561       C  0.62977092  0.20494525  0.87422802     0.06800
C1562       C  0.63332185  0.22528945  0.84067196    -0.03300
Br1563     Br  0.65155475  0.20409848  0.79460061    -0.01900
Br1564     Br  0.61860220  0.28670362  0.79276779    -0.02000
Br1565     Br  0.62863464  0.20112453  0.95582568    -0.01900
Br1566     Br  0.62590778  0.29120212  0.95502543    -0.01900
N1567       N  0.95873291  0.56472468  0.04262129    -0.07300
N1568       N  0.93334711  0.58975098  0.04921957    -0.59400
N1569       N  0.54143400  0.54049644  0.07069270    -0.07000
N1570       N  0.56507818  0.54821629  0.09690086    -0.61500
N1571       N  0.54174914  0.56667110  0.04540317    -0.06600
N1572       N  0.56543372  0.59279668  0.05407432    -0.59400
N1573       N  0.95810573  0.53919814  0.06855143    -0.06300
N1574       N  0.93221612  0.54646647  0.09331922    -0.61900
C1575       C  0.91665536  0.57795737  0.08067283     0.94900
C1576       C  0.58019184  0.58074078  0.08605724     0.94700
N1577       N  0.54352941  0.92593553  0.04364221    -0.07500
N1578       N  0.56877186  0.90110077  0.05120528    -0.60000
N1579       N  0.95928278  0.95179182  0.06701269    -0.05600
N1580       N  0.93354631  0.94469912  0.09157807    -0.61200
N1581       N  0.96063177  0.92553277  0.04134430    -0.07500
N1582       N  0.93610675  0.89975055  0.04823124    -0.60300
N1583       N  0.54230226  0.95204454  0.06948805    -0.05200
N1584       N  0.56655160  0.94540889  0.09517747    -0.61300
Mn1585     Mn  0.00031704  0.99582116  0.06994204     1.18400
C1586       C  0.58311135  0.91375110  0.08339893     0.97000
C1587       C  0.91915419  0.91230569  0.07944093     0.97600
N1588       N  0.54613049  0.56607968  0.45752085    -0.07500
N1589       N  0.57176673  0.59103767  0.45117893    -0.63800
N1590       N  0.96432101  0.53977781  0.42790901    -0.06300
N1591       N  0.94144170  0.54776812  0.40112021    -0.64500
N1592       N  0.96235625  0.56497803  0.45459646    -0.07000
N1593       N  0.93771461  0.59022006  0.44676221    -0.64100
N1594       N  0.54740667  0.53971968  0.43196483    -0.05900
N1595       N  0.57384180  0.54607300  0.40799326    -0.64800
Mn1596     Mn  0.00215173  0.56659438  0.00002457     1.10700
C1597       C  0.58922742  0.57794914  0.42032625     0.98200
C1598       C  0.92467558  0.57913960  0.41342714     0.98300
N1599       N  0.96362002  0.92631059  0.45356366    -0.07000
N1600       N  0.93831298  0.90160545  0.44615905    -0.62400
N1601       N  0.54797453  0.95258664  0.43129174    -0.06400
N1602       N  0.57417996  0.94593013  0.40699350    -0.60700
N1603       N  0.54704876  0.92646455  0.45654489    -0.07700
N1604       N  0.57257545  0.90148652  0.44979121    -0.62000
N1605       N  0.96458872  0.95191094  0.42770118    -0.06700
N1606       N  0.94005377  0.94493768  0.40206489    -0.59200
Mn1607     Mn  0.50365366  0.92495594  0.49865882     1.20200
Mn1608     Mn  0.50608465  0.49595316  0.42866600     1.10100
Cl1609     Cl  0.50298880  0.49587675  0.99934987    -0.87100
C1610       C  0.92354624  0.91362399  0.41416067     0.95200
C1611       C  0.58974981  0.91419400  0.41897335     0.95000
C1612       C  0.61560533  0.60020488  0.39688323     0.85300
C1613       C  0.61420400  0.58860025  0.35588606    -0.54900
C1614       C  0.63601571  0.60857169  0.33317632     0.08200
C1615       C  0.65905810  0.63794685  0.35409678     0.19200
C1616       C  0.65572329  0.59705504  0.40766163    -0.55700
C1617       C  0.67879310  0.61663280  0.38498310     0.08300
C1618       C  0.60768197  0.64224167  0.39646485    -0.55200
C1619       C  0.63116077  0.66283952  0.37505774     0.08900
H1620       H  0.59490975  0.56868936  0.34486596     0.13400
H1621       H  0.67877559  0.65248279  0.33618791    -0.00800
H1622       H  0.66495697  0.58088523  0.43108464     0.13700
H1623       H  0.58524240  0.65458762  0.41180822     0.13500
C1624       C  0.61340007  0.89008636  0.39422095     0.85300
C1625       C  0.60332009  0.84858253  0.39559400    -0.54900
C1626       C  0.62426958  0.82617346  0.37334115     0.08200
C1627       C  0.65199772  0.84812232  0.35010718     0.19200
C1628       C  0.65445065  0.89184577  0.40156879    -0.55700
C1629       C  0.67542151  0.86930538  0.37865837     0.08300
C1630       C  0.61007257  0.90030106  0.35342893    -0.55200
C1631       C  0.62984077  0.87852711  0.33016258     0.08900
H1632       H  0.58160387  0.83784345  0.41300270     0.13400
H1633       H  0.66679994  0.82916514  0.33173373    -0.00800
H1634       H  0.66575585  0.91091059  0.42196124     0.13700
H1635       H  0.59315216  0.92269841  0.34325552     0.13500
C1636       C  0.61032563  0.89292834  0.10631601     0.85300
C1637       C  0.60845066  0.90441850  0.14758488    -0.54900
C1638       C  0.63178663  0.88597586  0.16974960     0.08200
C1639       C  0.65606316  0.85842600  0.14815736     0.19200
C1640       C  0.64958059  0.89922746  0.09448400    -0.55700
C1641       C  0.67389634  0.88134492  0.11617366     0.08300
C1642       C  0.60599678  0.85025828  0.10588608    -0.55200
C1643       C  0.62927993  0.83124250  0.12856121     0.08900
H1644       H  0.58923310  0.92459470  0.15878829     0.13400
H1645       H  0.67521134  0.84614378  0.16762260    -0.00800
H1646       H  0.65757400  0.91667215  0.07130162     0.13700
H1647       H  0.58658092  0.83641070  0.08815525     0.13500
C1648       C  0.60512712  0.60361952  0.11025876     0.85300
C1649       C  0.60280435  0.64597476  0.10450144    -0.54900
C1650       C  0.62431843  0.66660392  0.12762614     0.08200
C1651       C  0.64754331  0.64193868  0.15341110     0.19200
C1652       C  0.64542605  0.59415689  0.10504581    -0.55700
C1653       C  0.66836571  0.61467403  0.12687805     0.08300
C1654       C  0.59748264  0.59799330  0.15174930    -0.55200
C1655       C  0.61991353  0.61729929  0.17440696     0.08900
H1656       H  0.58562884  0.65848077  0.08382443     0.13400
H1657       H  0.66497310  0.65834971  0.17229867    -0.00800
H1658       H  0.65496618  0.57322331  0.08536521     0.13700
H1659       H  0.57695334  0.57921724  0.16253143     0.13500
C1660       C  0.90030816  0.60318503  0.39021477     0.85300
C1661       C  0.86020726  0.60224527  0.40202930    -0.54900
C1662       C  0.83780770  0.62371741  0.38079175     0.08200
C1663       C  0.85931704  0.64646886  0.35140146     0.19200
C1664       C  0.90046591  0.59383641  0.34825315    -0.55700
C1665       C  0.87976044  0.61729408  0.32758475     0.08300
C1666       C  0.91077341  0.64436732  0.39280552    -0.55200
C1667       C  0.88899770  0.66720443  0.37323601     0.08900
H1668       H  0.85041231  0.58530585  0.42475538     0.13400
H1669       H  0.84312381  0.66506875  0.33391213    -0.00800
H1670       H  0.91609386  0.57124773  0.33598052     0.13700
H1671       H  0.93231662  0.65494044  0.41031106     0.13500
C1672       C  0.88991577  0.60158423  0.10256005     0.85300
C1673       C  0.89513425  0.60134394  0.14509649    -0.54900
C1674       C  0.87247902  0.62469585  0.16512364     0.08200
C1675       C  0.84555787  0.64462754  0.13927212     0.19200
C1676       C  0.85016182  0.59094506  0.09726948    -0.55700
C1677       C  0.82646864  0.61334172  0.11639692     0.08300
C1678       C  0.89238944  0.64272588  0.09174781    -0.55200
C1679       C  0.86994734  0.66549952  0.11147475     0.08900
H1680       H  0.91492509  0.58352721  0.15813902     0.13400
H1681       H  0.82689745  0.66422613  0.15275695    -0.00800
H1682       H  0.84153263  0.56754473  0.08029495     0.13700
H1683       H  0.91114745  0.65333627  0.07095981     0.13500
C1684       C  0.89280814  0.89010106  0.10213631     0.85300
C1685       C  0.89289496  0.84820470  0.09371159    -0.54900
C1686       C  0.87032772  0.82786936  0.11610520     0.08200
C1687       C  0.84782215  0.85283175  0.14331033     0.19200
C1688       C  0.85344054  0.90192182  0.09726625    -0.55700
C1689       C  0.82950872  0.88194213  0.11803517     0.08300
C1690       C  0.90028508  0.89313131  0.14398257    -0.55200
C1691       C  0.87635683  0.87443550  0.16589706     0.08900
H1692       H  0.90999659  0.83555870  0.07241158     0.13400
H1693       H  0.82883781  0.83848884  0.16216310    -0.00800
H1694       H  0.84497842  0.92285852  0.07749698     0.13700
H1695       H  0.92306368  0.90844983  0.15531280     0.13500
C1696       C  0.89727756  0.89073923  0.39173711     0.85300
C1697       C  0.90234817  0.89316208  0.34926986    -0.54900
C1698       C  0.87832104  0.87222565  0.32905955     0.08200
C1699       C  0.85279512  0.84923773  0.35439050     0.19200
C1700       C  0.85715267  0.90019415  0.39908561    -0.55700
C1701       C  0.83364885  0.87819707  0.37966428     0.08300
C1702       C  0.90103915  0.84921300  0.39966596    -0.55200
C1703       C  0.87841488  0.82725792  0.37990872     0.08900
H1704       H  0.92350955  0.90975032  0.33640427     0.13400
H1705       H  0.83265585  0.83183987  0.34004625    -0.00800
H1706       H  0.84830684  0.92250985  0.41760787     0.13700
H1707       H  0.92145228  0.83766011  0.41774009     0.13500
C1708       C  0.87956057  0.90787021  0.22841988    -0.03000
C1709       C  0.87818854  0.87432418  0.20758337     0.06700
C1710       C  0.87683829  0.84045181  0.22688109    -0.03100
C1711       C  0.87314801  0.83972379  0.26572337    -0.03100
C1712       C  0.87708409  0.87286054  0.28709184     0.06800
C1713       C  0.87962998  0.90719473  0.26774529    -0.03300
Br1714     Br  0.87787481  0.95444646  0.29421991    -0.01900
Br1715     Br  0.88038786  0.95542100  0.20370203    -0.02000
Br1716     Br  0.86030762  0.79212124  0.28655761    -0.01900
Br1717     Br  0.88478126  0.79381710  0.20156779    -0.01900
C1718       C  0.90411734  0.72684378  0.11402949    -0.03000
C1719       C  0.87138824  0.70693817  0.10947558     0.06700
C1720       C  0.83895310  0.72691267  0.10754498    -0.03100
C1721       C  0.83830309  0.76513566  0.11472890    -0.03100
C1722       C  0.87065204  0.78598930  0.11504203     0.06800
C1723       C  0.90396941  0.76615208  0.11503686    -0.03300
Br1724     Br  0.94934918  0.79179334  0.12326331    -0.01900
Br1725     Br  0.94907899  0.70101346  0.12179086    -0.02000
Br1726     Br  0.79295005  0.78488257  0.13088131    -0.01900
Br1727     Br  0.79508037  0.70294210  0.09214036    -0.01900
C1728       C  0.91067253  0.62008731  0.26408000    -0.03000
C1729       C  0.87863997  0.61756771  0.28587162     0.06700
C1730       C  0.84512497  0.62193561  0.26814305    -0.03100
C1731       C  0.84345020  0.63177267  0.23052364    -0.03100
C1732       C  0.87473211  0.62891766  0.20725700     0.06800
C1733       C  0.90872581  0.62595243  0.22527752    -0.03300
Br1734     Br  0.95322218  0.63663070  0.19862345    -0.01900
Br1735     Br  0.95780596  0.61580715  0.28660783    -0.02000
Br1736     Br  0.79929658  0.65635457  0.21649261    -0.01900
Br1737     Br  0.80028630  0.61085959  0.29373904    -0.01900
C1738       C  0.87005736  0.72561311  0.40631572    -0.03000
C1739       C  0.89033879  0.70825319  0.37764332     0.06700
C1740       C  0.91144641  0.73029938  0.35362497    -0.03100
C1741       C  0.90954918  0.76935668  0.35631943    -0.03100
C1742       C  0.88312167  0.78624961  0.37967104     0.06800
C1743       C  0.86435728  0.76426972  0.40564548    -0.03300
Br1744     Br  0.83100571  0.78685753  0.44043530    -0.01900
Br1745     Br  0.85062704  0.69661198  0.44687623    -0.02000
Br1746     Br  0.94361738  0.79943214  0.32859189    -0.01900
Br1747     Br  0.94369545  0.70734552  0.31796889    -0.01900
C1748       C  0.73133400  0.60466065  0.15419928    -0.03000
C1749       C  0.70918614  0.61163579  0.12310674     0.06700
C1750       C  0.72663745  0.61485104  0.08770691    -0.03100
C1751       C  0.76499303  0.61374154  0.08461174    -0.03100
C1752       C  0.78622328  0.60751020  0.11633811     0.06800
C1753       C  0.76853801  0.59786144  0.14942067    -0.03300
Br1754     Br  0.79348674  0.56735901  0.18473257    -0.01900
Br1755     Br  0.71427956  0.60889687  0.20444564    -0.02000
Br1756     Br  0.78833037  0.61983747  0.03677062    -0.01900
Br1757     Br  0.69906777  0.62578027  0.04375739    -0.01900
C1758       C  0.65952137  0.76672829  0.13368035    -0.03000
C1759       C  0.62779443  0.78889838  0.13243257     0.06700
C1760       C  0.59411066  0.76961319  0.13264256    -0.03100
C1761       C  0.59268950  0.73016179  0.13075040    -0.03100
C1762       C  0.62487445  0.70872416  0.12828622     0.06800
C1763       C  0.65808775  0.72785079  0.12865280    -0.03300
Br1764     Br  0.70259193  0.70199018  0.11794416    -0.01900
Br1765     Br  0.70562693  0.78647530  0.14671893    -0.02000
Br1766     Br  0.54595444  0.70619384  0.13240681    -0.01900
Br1767     Br  0.54916980  0.79611912  0.14062564    -0.01900
C1768       C  0.77161086  0.86088360  0.08790622    -0.03000
C1769       C  0.78970833  0.88506210  0.11269723     0.06700
C1770       C  0.76985790  0.91410465  0.12975603    -0.03100
C1771       C  0.73211303  0.91597127  0.12522821    -0.03100
C1772       C  0.71363251  0.88524425  0.11018124     0.06800
C1773       C  0.73342051  0.85924420  0.08856216    -0.03300
Br1774     Br  0.70832304  0.82360826  0.05787423    -0.01900
Br1775     Br  0.79876411  0.83255813  0.05122202    -0.02000
Br1776     Br  0.70648205  0.96191423  0.13522655    -0.01900
Br1777     Br  0.79394306  0.95129895  0.15906309    -0.01900
C1778       C  0.65789112  0.90083698  0.27139073    -0.03000
C1779       C  0.62866749  0.88413367  0.28964040     0.06700
C1780       C  0.59734616  0.87531981  0.26949595    -0.03100
C1781       C  0.59742320  0.87888088  0.23054954    -0.03100
C1782       C  0.62991197  0.88820182  0.21133774     0.06800
C1783       C  0.66027366  0.89910286  0.23254136    -0.03300
Br1784     Br  0.70627727  0.91014225  0.21083377    -0.01900
Br1785     Br  0.69130377  0.93138160  0.29919628    -0.02000
Br1786     Br  0.55274801  0.87013824  0.20473538    -0.01900
Br1787     Br  0.55408699  0.85896412  0.29538301    -0.01900
C1788       C  0.73522717  0.87148752  0.41426205    -0.03000
C1789       C  0.71658927  0.86828058  0.37986047     0.06700
C1790       C  0.73822468  0.86804676  0.34683418    -0.03100
C1791       C  0.77403710  0.88029153  0.34795902    -0.03100
C1792       C  0.79312656  0.88078821  0.38140195     0.06800
C1793       C  0.77337906  0.87632047  0.41487728    -0.03300
Br1794     Br  0.79825267  0.87690879  0.46165234    -0.01900
Br1795     Br  0.71020639  0.86334446  0.46090693    -0.02000
Br1796     Br  0.79453553  0.90105979  0.30344109    -0.01900
Br1797     Br  0.72608650  0.84355913  0.30052107    -0.01900
C1798       C  0.63733959  0.58096504  0.23070687    -0.03000
C1799       C  0.61960739  0.61181274  0.21522204     0.06700
C1800       C  0.60097255  0.63664069  0.23896570    -0.03100
C1801       C  0.60329560  0.63267001  0.27765188    -0.03100
C1802       C  0.62922383  0.60827524  0.29255295     0.06800
C1803       C  0.64475203  0.58085961  0.26907013    -0.03300
Br1804     Br  0.67577949  0.54324109  0.28912312    -0.01900
Br1805     Br  0.65122400  0.53908715  0.19956073    -0.02000
Br1806     Br  0.56917947  0.65892805  0.30946199    -0.01900
Br1807     Br  0.57108762  0.67504743  0.21896545    -0.01900
C1808       C  0.73748435  0.65221940  0.38930877    -0.03000
C1809       C  0.71935652  0.61774494  0.38867950     0.06700
C1810       C  0.74038706  0.58497577  0.38673940    -0.03100
C1811       C  0.77873985  0.58688279  0.38561319    -0.03100
C1812       C  0.79686146  0.62188577  0.38393056     0.06800
C1813       C  0.77512426  0.65444238  0.38357708    -0.03300
Br1814     Br  0.79377850  0.70297400  0.37161252    -0.01900
Br1815     Br  0.71188763  0.69736619  0.40126351    -0.02000
Br1816     Br  0.80526228  0.54060024  0.38067699    -0.01900
Br1817     Br  0.71684844  0.53716211  0.38287946    -0.01900
C1818       C  0.62640002  0.76373762  0.34034497    -0.03000
C1819       C  0.62330727  0.78434273  0.37387027     0.06700
C1820       C  0.62396350  0.76480508  0.40788517    -0.03100
C1821       C  0.62565112  0.72552189  0.40804879    -0.03100
C1822       C  0.62977715  0.70493695  0.37423461     0.06800
C1823       C  0.63333261  0.72528158  0.34067918    -0.03300
Br1824     Br  0.65157232  0.70409255  0.29460961    -0.01900
Br1825     Br  0.61860956  0.78669426  0.29277408    -0.02000
Br1826     Br  0.62863313  0.70111446  0.45583222    -0.01900
Br1827     Br  0.62590239  0.79119148  0.45503339    -0.01900
N1828       N  0.95874093  0.56473504  0.54261293    -0.07300
N1829       N  0.93335222  0.58975930  0.54920899    -0.59400
N1830       N  0.54143366  0.54047720  0.57068989    -0.07000
N1831       N  0.56508016  0.54819571  0.59689589    -0.61500
N1832       N  0.54174810  0.56665149  0.54540002    -0.06600
N1833       N  0.56543530  0.59277478  0.55406782    -0.59400
N1834       N  0.95811212  0.53920785  0.56854255    -0.06300
N1835       N  0.93221934  0.54647357  0.59330740    -0.61900
C1836       C  0.91665755  0.57796329  0.58066022     0.94900
C1837       C  0.58019477  0.58071854  0.58604941     0.94700
N1838       N  0.54352750  0.92592777  0.54363035    -0.07500
N1839       N  0.56876719  0.90108998  0.55119250    -0.60000
N1840       N  0.95927778  0.95178354  0.56700977    -0.05600
N1841       N  0.93353734  0.94469060  0.59157043    -0.61200
N1842       N  0.96063167  0.92552395  0.54134222    -0.07500
N1843       N  0.93610575  0.89974137  0.54822448    -0.60300
N1844       N  0.54230397  0.95203753  0.56947515    -0.05200
N1845       N  0.56655365  0.94539957  0.59516360    -0.61300
Mn1846     Mn  0.00031012  0.99581456  0.56994333     1.18400
C1847       C  0.58310845  0.91373887  0.58338542     0.97000
C1848       C  0.91914806  0.91229654  0.57943108     0.97600
N1849       N  0.54613344  0.56608992  0.95752099    -0.07500
N1850       N  0.57176878  0.59104851  0.95117755    -0.63800
N1851       N  0.96430860  0.53977577  0.92791583    -0.06300
N1852       N  0.94143627  0.54777325  0.90112271    -0.64500
N1853       N  0.96234468  0.56497550  0.95460392    -0.07000
N1854       N  0.93771064  0.59022444  0.94676538    -0.64100
N1855       N  0.54741090  0.53972787  0.93196692    -0.05900
N1856       N  0.57384715  0.54607987  0.90799638    -0.64800
Mn1857     Mn  0.00216324  0.56660306  0.50001638     1.10700
C1858       C  0.58923120  0.57795780  0.92032671     0.98200
C1859       C  0.92467517  0.57914863  0.91342714     0.98300
N1860       N  0.96362183  0.92631361  0.95355927    -0.07000
N1861       N  0.93831424  0.90161007  0.94615008    -0.62400
N1862       N  0.54797498  0.95259305  0.93129466    -0.06400
N1863       N  0.57417584  0.94593602  0.90699131    -0.60700
N1864       N  0.54705298  0.92647140  0.95654871    -0.07700
N1865       N  0.57257841  0.90149291  0.94978987    -0.62000
N1866       N  0.96459791  0.95191225  0.92769520    -0.06700
N1867       N  0.94006766  0.94493996  0.90205393    -0.59200
Mn1868     Mn  0.50365712  0.92496212  0.99866578     1.20200
Mn1869     Mn  0.50608907  0.49595944  0.92866619     1.10100
Cl1870     Cl  0.50298371  0.49586637  0.49935109    -0.87100
C1871       C  0.92355509  0.91362842  0.91414732     0.95200
C1872       C  0.58974748  0.91420012  0.91896822     0.95000
C1873       C  0.61560467  0.60021439  0.89687896     0.85300
C1874       C  0.61419430  0.58861212  0.85588149    -0.54900
C1875       C  0.63600334  0.60858317  0.83316860     0.08200
C1876       C  0.65905156  0.63795580  0.85408554     0.19200
C1877       C  0.65572467  0.59706188  0.90764895    -0.55700
C1878       C  0.67879188  0.61663890  0.88496717     0.08300
C1879       C  0.60768275  0.64225150  0.89646338    -0.55200
C1880       C  0.63115796  0.66284925  0.87505180     0.08900
H1881       H  0.59489833  0.56870126  0.84486455     0.13400
H1882       H  0.67876613  0.65249194  0.83617342    -0.00800
H1883       H  0.66496141  0.58089208  0.93107071     0.13700
H1884       H  0.58524523  0.65459729  0.91181001     0.13500
C1885       C  0.61339942  0.89009536  0.89421358     0.85300
C1886       C  0.60331744  0.84859230  0.89558164    -0.54900
C1887       C  0.62426826  0.82618429  0.87332970     0.08200
C1888       C  0.65200066  0.84813350  0.85010034     0.19200
C1889       C  0.65444888  0.89185238  0.90156662    -0.55700
C1890       C  0.67542241  0.86931401  0.87865657     0.08300
C1891       C  0.61007851  0.90031496  0.85342125    -0.55200
C1892       C  0.62984897  0.87854210  0.83015439     0.08900
H1893       H  0.58160090  0.83785194  0.91298933     0.13400
H1894       H  0.66680219  0.82917527  0.83172651    -0.00800
H1895       H  0.66575148  0.91091802  0.92195965     0.13700
H1896       H  0.59315925  0.92271331  0.84324834     0.13500
C1897       C  0.61031876  0.89291195  0.60630240     0.85300
C1898       C  0.60844778  0.90440470  0.64757077    -0.54900
C1899       C  0.63178308  0.88596050  0.66973497     0.08200
C1900       C  0.65605551  0.85840739  0.64814208     0.19200
C1901       C  0.64957248  0.89920536  0.59446655    -0.55700
C1902       C  0.67388743  0.88132194  0.61615522     0.08300
C1903       C  0.60598519  0.85024205  0.60587553    -0.55200
C1904       C  0.62926902  0.83122529  0.62854993     0.08900
H1905       H  0.58923381  0.92458457  0.65877413     0.13400
H1906       H  0.67520433  0.84612679  0.66760643    -0.00800
H1907       H  0.65756619  0.91664837  0.57128279     0.13700
H1908       H  0.58656655  0.83639546  0.58814707     0.13500
C1909       C  0.60512676  0.60360027  0.61024900     0.85300
C1910       C  0.60279669  0.64595448  0.60448807    -0.54900
C1911       C  0.62430932  0.66658876  0.62760887     0.08200
C1912       C  0.64753923  0.64192973  0.65339448     0.19200
C1913       C  0.64542603  0.59414330  0.60503346    -0.55700
C1914       C  0.66836386  0.61466578  0.62686208     0.08300
C1915       C  0.59748544  0.59797580  0.65174037    -0.55200
C1916       C  0.61991411  0.61728849  0.67439492     0.08900
H1917       H  0.58561896  0.65845586  0.58381041     0.13400
H1918       H  0.66496763  0.65834623  0.67227869    -0.00800
H1919       H  0.65496767  0.57320913  0.58535427     0.13700
H1920       H  0.57695921  0.57919790  0.66252521     0.13500
C1921       C  0.90030991  0.60319653  0.89021295     0.85300
C1922       C  0.86020881  0.60225688  0.90202654    -0.54900
C1923       C  0.83780931  0.62372801  0.88078813     0.08200
C1924       C  0.85931869  0.64647948  0.85139773     0.19200
C1925       C  0.90046844  0.59384807  0.84825062    -0.55700
C1926       C  0.87976240  0.61730476  0.82758080     0.08300
C1927       C  0.91077460  0.64437908  0.89280370    -0.55200
C1928       C  0.88899894  0.66721583  0.87323279     0.08900
H1929       H  0.85041368  0.58531789  0.92475278     0.13400
H1930       H  0.84312424  0.66507936  0.83390905    -0.00800
H1931       H  0.91609643  0.57125885  0.83597887     0.13700
H1932       H  0.93231760  0.65495230  0.91030940     0.13500
C1933       C  0.88991326  0.60158593  0.60254671     0.85300
C1934       C  0.89512786  0.60134134  0.64508407    -0.54900
C1935       C  0.87247092  0.62469054  0.66511277     0.08200
C1936       C  0.84554953  0.64462176  0.63926023     0.19200
C1937       C  0.85016072  0.59094421  0.59725143    -0.55700
C1938       C  0.82646465  0.61333733  0.61637945     0.08300
C1939       C  0.89238421  0.64272846  0.59173872    -0.55200
C1940       C  0.86993868  0.66549805  0.61146633     0.08900
H1941       H  0.91491823  0.58352387  0.65812583     0.13400
H1942       H  0.82688496  0.66421728  0.65274429    -0.00800
H1943       H  0.84153465  0.56754482  0.58027403     0.13700
H1944       H  0.91114221  0.65334232  0.57095257     0.13500
C1945       C  0.89279637  0.89009389  0.60212088     0.85300
C1946       C  0.89288321  0.84819641  0.59370197    -0.54900
C1947       C  0.87030862  0.82786584  0.61609278     0.08200
C1948       C  0.84779875  0.85283306  0.64328911     0.19200
C1949       C  0.85343082  0.90191600  0.59723936    -0.55700
C1950       C  0.82949397  0.88194039  0.61800555     0.08300
C1951       C  0.90026407  0.89312821  0.64396849    -0.55200
C1952       C  0.87632973  0.87443725  0.66588019     0.08900
H1953       H  0.90999162  0.83554591  0.57241017     0.13400
H1954       H  0.82880768  0.83849533  0.66213843    -0.00800
H1955       H  0.84497403  0.92285024  0.57746496     0.13700
H1956       H  0.92304295  0.90844405  0.65530163     0.13500
C1957       C  0.89728231  0.89074934  0.89172210     0.85300
C1958       C  0.90234706  0.89317494  0.84925359    -0.54900
C1959       C  0.87831464  0.87224182  0.82904513     0.08200
C1960       C  0.85279080  0.84925520  0.85437923     0.19200
C1961       C  0.85715888  0.90020721  0.89907713    -0.55700
C1962       C  0.83365042  0.87821454  0.87965701     0.08300
C1963       C  0.90104219  0.84922247  0.89964624    -0.55200
C1964       C  0.87841376  0.82727085  0.87989069     0.08900
H1965       H  0.92351025  0.90975969  0.83638676     0.13400
H1966       H  0.83264570  0.83186155  0.84003949    -0.00800
H1967       H  0.84831748  0.92252237  0.91760217     0.13700
H1968       H  0.92145713  0.83766664  0.91771606     0.13500
C1969       C  0.87954581  0.90787604  0.72839996    -0.03000
C1970       C  0.87815688  0.87432845  0.70756710     0.06700
C1971       C  0.87679325  0.84045854  0.72686898    -0.03100
C1972       C  0.87311607  0.83973590  0.76571265    -0.03100
C1973       C  0.87707167  0.87287343  0.78707692     0.06800
C1974       C  0.87962598  0.90720454  0.76772550    -0.03300
Br1975     Br  0.87790082  0.95446052  0.79419382    -0.01900
Br1976     Br  0.88037480  0.95542472  0.70367676    -0.02000
Br1977     Br  0.86027335  0.79213654  0.78655509    -0.01900
Br1978     Br  0.88469313  0.79381443  0.70155924    -0.01900
C1979       C  0.90410264  0.72684378  0.61403316    -0.03000
C1980       C  0.87137594  0.70693633  0.60947077     0.06700
C1981       C  0.83893935  0.72690786  0.60753570    -0.03100
C1982       C  0.83828533  0.76513054  0.61472010    -0.03100
C1983       C  0.87063316  0.78598618  0.61503770     0.06800
C1984       C  0.90395131  0.76615154  0.61504669    -0.03300
Br1985     Br  0.94932338  0.79179612  0.62330751    -0.01900
Br1986     Br  0.94906693  0.70101629  0.62178846    -0.02000
Br1987     Br  0.79293032  0.78487087  0.63087617    -0.01900
Br1988     Br  0.79507230  0.70293503  0.59211718    -0.01900
C1989       C  0.91066992  0.62008857  0.76407117    -0.03000
C1990       C  0.87863893  0.61757505  0.78586629     0.06700
C1991       C  0.84512325  0.62194288  0.76813830    -0.03100
C1992       C  0.84344688  0.63177507  0.73051708    -0.03100
C1993       C  0.87472651  0.62891294  0.70724752     0.06800
C1994       C  0.90872108  0.62594666  0.72526709    -0.03300
Br1995     Br  0.95321754  0.63661612  0.69860926    -0.01900
Br1996     Br  0.95780460  0.61581129  0.78659686    -0.02000
Br1997     Br  0.79929602  0.65636283  0.71648745    -0.01900
Br1998     Br  0.80028496  0.61087136  0.79373656    -0.01900
C1999       C  0.87006931  0.72562935  0.90631212    -0.03000
C2000       C  0.89034133  0.70826547  0.87763498     0.06700
C2001       C  0.91143734  0.73030909  0.85360368    -0.03100
C2002       C  0.90953964  0.76936675  0.85629331    -0.03100
C2003       C  0.88311865  0.78626211  0.87965138     0.06800
C2004       C  0.86436512  0.76428529  0.90563638    -0.03300
Br2005     Br  0.83102289  0.78687747  0.94043311    -0.01900
Br2006     Br  0.85065553  0.69663469  0.94688491    -0.02000
Br2007     Br  0.94360137  0.79943862  0.82855361    -0.01900
Br2008     Br  0.94367246  0.70735118  0.81793701    -0.01900
C2009       C  0.73133258  0.60466386  0.65418280    -0.03000
C2010       C  0.70918397  0.61163077  0.62308921     0.06700
C2011       C  0.72663408  0.61483864  0.58768763    -0.03100
C2012       C  0.76498963  0.61372801  0.58459150    -0.03100
C2013       C  0.78622015  0.60750320  0.61631911     0.06800
C2014       C  0.76853587  0.59786314  0.64940437    -0.03300
Br2015     Br  0.79348533  0.56736726  0.68472085    -0.01900
Br2016     Br  0.71428081  0.60891535  0.70442931    -0.02000
Br2017     Br  0.78832609  0.61981342  0.53674830    -0.01900
Br2018     Br  0.69906351  0.62576121  0.54373666    -0.01900
C2019       C  0.65950952  0.76671040  0.63367055    -0.03000
C2020       C  0.62778329  0.78888149  0.63242148     0.06700
C2021       C  0.59409940  0.76959723  0.63262809    -0.03100
C2022       C  0.59267765  0.73014611  0.63072891    -0.03100
C2023       C  0.62486271  0.70870860  0.62826381     0.06800
C2024       C  0.65807562  0.72783501  0.62863175    -0.03300
Br2025     Br  0.70257873  0.70197939  0.61790614    -0.01900
Br2026     Br  0.70561063  0.78644559  0.64674374    -0.02000
Br2027     Br  0.54594226  0.70617941  0.63237434    -0.01900
Br2028     Br  0.54916136  0.79610420  0.64062605    -0.01900
C2029       C  0.77159981  0.86086321  0.58788656    -0.03000
C2030       C  0.78969588  0.88505957  0.61266059     0.06700
C2031       C  0.76984436  0.91410854  0.62970605    -0.03100
C2032       C  0.73209767  0.91596141  0.62519033    -0.03100
C2033       C  0.71362169  0.88522245  0.61016076     0.06800
C2034       C  0.73341045  0.85921554  0.58855077    -0.03300
Br2035     Br  0.70831545  0.82355756  0.55788571    -0.01900
Br2036     Br  0.79875324  0.83252536  0.55121173    -0.02000
Br2037     Br  0.70645322  0.96189450  0.63520003    -0.01900
Br2038     Br  0.79393190  0.95132999  0.65897758    -0.01900
C2039       C  0.65790128  0.90083433  0.77137152    -0.03000
C2040       C  0.62867426  0.88414447  0.78962969     0.06700
C2041       C  0.59734998  0.87533219  0.76948895    -0.03100
C2042       C  0.59742497  0.87888286  0.73054116    -0.03100
C2043       C  0.62991400  0.88819168  0.71132363     0.06800
C2044       C  0.66028085  0.89908812  0.73252172    -0.03300
Br2045     Br  0.70628713  0.91010427  0.71080464    -0.01900
Br2046     Br  0.69132023  0.93138389  0.79916243    -0.02000
Br2047     Br  0.55274678  0.87013942  0.70473230    -0.01900
Br2048     Br  0.55408932  0.85899078  0.79538268    -0.01900
C2049       C  0.73522991  0.87150810  0.91426053    -0.03000
C2050       C  0.71659085  0.86829537  0.87985940     0.06700
C2051       C  0.73822575  0.86806485  0.84683275    -0.03100
C2052       C  0.77403623  0.88031593  0.84795670    -0.03100
C2053       C  0.79312803  0.88080980  0.88139806     0.06800
C2054       C  0.77338216  0.87634090  0.91487396    -0.03300
Br2055     Br  0.79825920  0.87692804  0.96164708    -0.01900
Br2056     Br  0.71021170  0.86337812  0.96090905    -0.02000
Br2057     Br  0.79452781  0.90109937  0.80344256    -0.01900
Br2058     Br  0.72609277  0.84357122  0.80052157    -0.01900
C2059       C  0.63734318  0.58096735  0.73070219    -0.03000
C2060       C  0.61960744  0.61180994  0.71521139     0.06700
C2061       C  0.60096998  0.63664122  0.73895012    -0.03100
C2062       C  0.60328789  0.63267500  0.77763756    -0.03100
C2063       C  0.62921365  0.60828129  0.79254483     0.06800
C2064       C  0.64474926  0.58086642  0.76906671    -0.03300
Br2065     Br  0.67578227  0.54325723  0.78912810    -0.01900
Br2066     Br  0.65124526  0.53909136  0.69956180    -0.02000
Br2067     Br  0.56917465  0.65894459  0.80944207    -0.01900
Br2068     Br  0.57109625  0.67505312  0.71894140    -0.01900
C2069       C  0.73748385  0.65222648  0.88929284    -0.03000
C2070       C  0.71935647  0.61775172  0.88866114     0.06700
C2071       C  0.74038871  0.58498287  0.88672882    -0.03100
C2072       C  0.77874182  0.58689111  0.88560607    -0.03100
C2073       C  0.79686281  0.62189451  0.88392464     0.06800
C2074       C  0.77512516  0.65445049  0.88357024    -0.03300
Br2075     Br  0.79378515  0.70298485  0.87162732    -0.01900
Br2076     Br  0.71188533  0.69737112  0.90125064    -0.02000
Br2077     Br  0.80526671  0.54060914  0.88067801    -0.01900
Br2078     Br  0.71685316  0.53716654  0.88288401    -0.01900
C2079       C  0.62639089  0.76374724  0.84033566    -0.03000
C2080       C  0.62330531  0.78435355  0.87386022     0.06700
C2081       C  0.62396685  0.76481727  0.90787547    -0.03100
C2082       C  0.62565086  0.72553384  0.90804065    -0.03100
C2083       C  0.62977279  0.70494712  0.87422681     0.06800
C2084       C  0.63332339  0.72529100  0.84066998    -0.03300
Br2085     Br  0.65155829  0.70410226  0.79459841    -0.01900
Br2086     Br  0.61859280  0.78670465  0.79276713    -0.02000
Br2087     Br  0.62863201  0.70112896  0.95582538    -0.01900
Br2088     Br  0.62592073  0.79120704  0.95502078    -0.01900
loop_ 
_geom_bond_atom_site_label_1 
_geom_bond_atom_site_label_2 
_geom_bond_distance 
_geom_bond_site_symmetry_2 
_ccdc_geom_bond_type 
N1            N2   1.318       .  A
N1            N7   1.315       .  A
N1          Mn30   2.207   1_554  S
N2            C9   1.354       .  A
N3            N5   1.316       .  A
N3            N4   1.321       .  A
N3        Mn1585   2.211   1_545  S
N4           C10   1.356       .  A
N5            N6   1.322       .  A
N5        Mn1074   2.205       .  S
N6           C10   1.354       .  A
N7            N8   1.324       .  A
N7         Mn541   2.207   1_545  S
N8            C9   1.355       .  A
C9          C106   1.512       .  S
C10          C82   1.513       .  S
N11          N17   1.316       .  A
N11          N12   1.323       .  A
N11        Mn302   2.201   1_554  S
N12          C20   1.354       .  A
N13          N14   1.317       .  A
N13          N15   1.315       .  A
N13         Mn19   2.196       .  S
N14          C21   1.352       .  A
N15          N16   1.320       .  A
N15       Mn1346   2.197   1_554  S
N16          C21   1.353       .  A
N17          N18   1.318       .  A
N17       Mn1063   2.211       .  S
N18          C20   1.355       .  A
Mn19       N1569   2.211       .  S
Mn19        N529   2.207       .  S
Mn19       N1061   2.211       .  S
Mn19      Cl1609   2.540   1_554  S
C20          C70   1.511       .  S
C21         C118   1.499       .  S
N22          N23   1.325       .  A
N22          N28   1.315       .  A
N22       Mn1335   2.217       .  S
N23          C31   1.358       .  A
N24          N26   1.315       .  A
N24          N25   1.323       .  A
N24       Mn1086   2.206   1_545  S
N25          C32   1.355       .  A
N26          N27   1.320       .  A
N26        Mn291   2.212       .  S
N27          C32   1.354       .  A
N28          N29   1.317       .  A
N28         Mn42   2.197   1_545  S
N29          C31   1.354       .  A
Mn30       N1049   2.205   1_556  S
Mn30       N1327   2.217       .  S
Mn30        N287   2.212       .  S
Mn30      Cl1087   2.546   1_545  S
C31          C46   1.516       .  S
C32          C94   1.512       .  S
N33          N34   1.318       .  A
N33          N39   1.316       .  A
N33       Mn1085   2.209       .  S
N34          C44   1.354       .  A
N35          N36   1.317       .  A
N35          N37   1.314       .  A
N35        Mn564   2.200       .  S
N36          C45   1.354       .  A
N37          N38   1.321       .  A
N37         Mn41   2.194       .  S
N38          C45   1.355       .  A
N39          N40   1.323       .  A
N39       Mn1608   2.205       .  S
N40          C44   1.355       .  A
Mn41        N272   2.201       .  S
Mn41       N1320   2.197   1_455  S
Mn41       N1077   2.209   1_455  S
Mn41       Cl826   2.551       .  S
Mn42       N1068   2.206   1_465  S
Mn42        N557   2.200       .  S
Mn42       N1605   2.205   1_455  S
Mn42       Cl304   2.544       .  S
Cl43      Mn1585   2.540   1_556  S
Cl43      Mn1074   2.546   1_566  S
Cl43       Mn824   2.551       .  S
Cl43       Mn303   2.544       .  S
C44         C130   1.509       .  S
C45          C58   1.508       .  S
C46          C47   1.531       .  S
C46          C52   1.540       .  S
C46          C50   1.541       .  S
C47          H54   1.086       .  S
C47          C48   1.353       .  D
C48          C49   1.552       .  S
C48         C236   1.486       .  S
C49          C53   1.549       .  S
C49          C51   1.546       .  S
C49          H55   1.103       .  S
C50          H56   1.087       .  S
C50          C51   1.373       .  D
C51         C243   1.507       .  S
C52          H57   1.083       .  S
C52          C53   1.375       .  D
C53         C256   1.516       .  S
C58          C59   1.540       .  S
C58          C64   1.523       .  S
C58          C62   1.544       .  S
C59          H66   1.086       .  S
C59          C60   1.365       .  D
C60          C61   1.538       .  S
C60         C253   1.506       .  S
C61          C65   1.552       .  S
C61          C63   1.546       .  S
C61          H67   1.088       .  S
C62          H68   1.087       .  S
C62          C63   1.382       .  D
C63         C223   1.523       .  S
C64          H69   1.088       .  S
C64          C65   1.349       .  D
C65         C213   1.475       .  S
C70          C71   1.538       .  S
C70          C76   1.543       .  S
C70          C74   1.525       .  S
C71          H78   1.087       .  S
C71          C72   1.358       .  D
C72          C73   1.536       .  S
C72         C216   1.499       .  S
C73          C77   1.561       .  S
C73          C75   1.562       .  S
C73          H79   1.097       .  S
C74          H80   1.087       .  S
C74          C75   1.362       .  D
C75         C206   1.489       .  S
C76          H81   1.084       .  S
C76          C77   1.378       .  D
C77         C193   1.532       .  S
C82          C83   1.542       .  S
C82          C88   1.531       .  S
C82          C86   1.536       .  S
C83          H90   1.084       .  S
C83          C84   1.371       .  D
C84          C85   1.555       .  S
C84         C196   1.515       .  S
C85          C89   1.548       .  S
C85          C87   1.559       .  S
C85          H91   1.108       .  S
C86          H92   1.085       .  S
C86          C87   1.373       .  D
C87         C183   1.517       .  S
C88          H93   1.087       .  S
C88          C89   1.356       .  D
C89         C233   1.484       .  S
C94          C95   1.537       .  S
C94         C100   1.534       .  S
C94          C98   1.543       .  S
C95         H102   1.084       .  S
C95          C96   1.375       .  D
C96          C97   1.555       .  S
C96         C246   1.518       .  S
C97         C101   1.545       .  S
C97          C99   1.540       .  S
C97         H103   1.104       .  S
C98         H104   1.084       .  S
C98          C99   1.369       .  D
C99         C163   1.502       .  S
C100        H105   1.087       .  S
C100        C101   1.357       .  D
C101        C173   1.485       .  S
C106        C107   1.545       .  S
C106        C112   1.536       .  S
C106        C110   1.532       .  S
C107        H114   1.086       .  S
C107        C108   1.378       .  D
C108        C109   1.550       .  S
C108        C166   1.525       .  S
C109        C113   1.540       .  S
C109        C111   1.561       .  S
C109        H115   1.092       .  S
C110        H116   1.085       .  S
C110        C111   1.365       .  D
C111        C186   1.502       .  S
C112        H117   1.086       .  S
C112        C113   1.355       .  D
C113        C153   1.494       .  S
C118        C119   1.534       .  S
C118        C124   1.537       .  S
C118        C122   1.528       .  S
C119        H126   1.084       .  S
C119        C120   1.370       .  D
C120        C121   1.555       .  S
C120        C156   1.507       .  S
C121        C125   1.544       .  S
C121        C123   1.553       .  S
C121        H127   1.102       .  S
C122        H128   1.089       .  S
C122        C123   1.361       .  D
C123        C203   1.490       .  S
C124        H129   1.087       .  S
C124        C125   1.360       .  D
C125        C143   1.502       .  S
C130        C131   1.540       .  S
C130        C136   1.530       .  S
C130        C134   1.540       .  S
C131        H138   1.086       .  S
C131        C132   1.375       .  D
C132        C133   1.549       .  S
C132        C146   1.511       .  S
C133        C137   1.548       .  S
C133        C135   1.542       .  S
C133        H139   1.102       .  S
C134        H140   1.086       .  S
C134        C135   1.369       .  D
C135        C226   1.501       .  S
C136        H141   1.087       .  S
C136        C137   1.353       .  D
C137        C176   1.485       .  S
C142        C143   1.416       .  A
C142        C147   1.415       .  A
C142       Br149   1.936       .  S
C143        C144   1.409       .  A
C144        C145   1.403       .  A
C144       Br151   1.922       .  S
C145        C146   1.421       .  A
C145       Br150   1.933       .  S
C146        C147   1.426       .  A
C147       Br148   1.941       .  S
C152        C153   1.416       .  A
C152        C157   1.414       .  A
C152       Br159   1.927       .  S
C153        C154   1.400       .  A
C154        C155   1.397       .  A
C154       Br161   1.922       .  S
C155        C156   1.412       .  A
C155       Br160   1.902       .  S
C156        C157   1.422       .  A
C157       Br158   1.939       .  S
C162        C163   1.416       .  A
C162        C167   1.417       .  A
C162       Br169   1.936       .  S
C163        C164   1.409       .  A
C164        C165   1.404       .  A
C164       Br171   1.930       .  S
C165        C166   1.422       .  A
C165       Br170   1.930       .  S
C166        C167   1.425       .  A
C167       Br168   1.934       .  S
C172        C173   1.409       .  A
C172        C177   1.407       .  A
C172       Br179   1.934       .  S
C173        C174   1.408       .  A
C174        C175   1.409       .  A
C174       Br181   1.921       .  S
C175        C176   1.414       .  A
C175       Br180   1.935       .  S
C176        C177   1.407       .  A
C177       Br178   1.921       .  S
C182        C183   1.418       .  A
C182        C187   1.404       .  A
C182       Br189   1.912       .  S
C183        C184   1.427       .  A
C184        C185   1.421       .  A
C184       Br191   1.934       .  S
C185        C186   1.412       .  A
C185       Br190   1.931       .  S
C186        C187   1.398       .  A
C187       Br188   1.929       .  S
C192        C193   1.419       .  A
C192        C197   1.410       .  A
C192       Br199   1.908       .  S
C193        C194   1.425       .  A
C194        C195   1.421       .  A
C194       Br201   1.932       .  S
C195        C196   1.418       .  A
C195       Br200   1.931       .  S
C196        C197   1.407       .  A
C197       Br198   1.922       .  S
C202        C203   1.414       .  A
C202        C207   1.412       .  A
C202       Br209   1.931       .  S
C203        C204   1.408       .  A
C204        C205   1.408       .  A
C204       Br211   1.921       .  S
C205        C206   1.407       .  A
C205       Br210   1.933       .  S
C206        C207   1.409       .  A
C207       Br208   1.929       .  S
C212        C213   1.396       .  A
C212        C217   1.400       .  A
C212       Br219   1.934       .  S
C213        C214   1.407       .  A
C214        C215   1.408       .  A
C214       Br221   1.935       .  S
C215        C216   1.420       .  A
C215       Br220   1.928       .  S
C216        C217   1.417       .  A
C217       Br218   1.906       .  S
C222        C223   1.427       .  A
C222        C227   1.421       .  A
C222       Br229   1.931       .  S
C223        C224   1.424       .  A
C224        C225   1.396       .  A
C224       Br231   1.935       .  S
C225        C226   1.402       .  A
C225       Br230   1.922       .  S
C226        C227   1.411       .  A
C227       Br228   1.927       .  S
C232        C233   1.411       .  A
C232        C237   1.410       .  A
C232       Br239   1.934       .  S
C233        C234   1.404       .  A
C234        C235   1.404       .  A
C234       Br241   1.919       .  S
C235        C236   1.413       .  A
C235       Br240   1.933       .  S
C236        C237   1.410       .  A
C237       Br238   1.924       .  S
C242        C243   1.410       .  A
C242        C247   1.406       .  A
C242       Br249   1.921       .  S
C243        C244   1.412       .  A
C244        C245   1.419       .  A
C244       Br251   1.933       .  S
C245        C246   1.428       .  A
C245       Br250   1.937       .  S
C246        C247   1.420       .  A
C247       Br248   1.928       .  S
C252        C253   1.413       .  A
C252        C257   1.407       .  A
C252       Br259   1.932       .  S
C253        C254   1.418       .  A
C254        C255   1.415       .  A
C254       Br261   1.938       .  S
C255        C256   1.425       .  A
C255       Br260   1.942       .  S
C256        C257   1.423       .  A
C257       Br258   1.932       .  S
N262        N263   1.318       .  A
N262        N268   1.315       .  A
N262       Mn291   2.207       .  S
N263        C270   1.354       .  A
N264        N266   1.316       .  A
N264        N265   1.321       .  A
N264      Mn1846   2.211   1_545  S
N265        C271   1.356       .  A
N266        N267   1.322       .  A
N266      Mn1335   2.205       .  S
N267        C271   1.354       .  A
N268        N269   1.324       .  A
N268       Mn802   2.207   1_545  S
N269        C270   1.355       .  A
C270        C367   1.512       .  S
C271        C343   1.513       .  S
N272        N278   1.316       .  A
N272        N273   1.323       .  A
N273        C281   1.354       .  A
N274        N275   1.317       .  A
N274        N276   1.315       .  A
N274       Mn280   2.196       .  S
N275        C282   1.352       .  A
N276        N277   1.320       .  A
N276      Mn1085   2.197       .  S
N277        C282   1.353       .  A
N278        N279   1.318       .  A
N278      Mn1324   2.211       .  S
N279        C281   1.355       .  A
Mn280      N1830   2.211       .  S
Mn280       N790   2.207       .  S
Mn280      N1322   2.211       .  S
Mn280     Cl1870   2.540       .  S
C281        C331   1.511       .  S
C282        C379   1.499       .  S
N283        N284   1.325       .  A
N283        N289   1.315       .  A
N283      Mn1074   2.217   1_556  S
N284        C292   1.358       .  A
N285        N287   1.315       .  A
N285        N286   1.323       .  A
N285      Mn1347   2.206   1_545  S
N286        C293   1.355       .  A
N287        N288   1.320       .  A
N288        C293   1.354       .  A
N289        N290   1.317       .  A
N289       Mn303   2.197   1_545  S
N290        C292   1.354       .  A
Mn291      N1310   2.205       .  S
Mn291      N1066   2.217       .  S
Mn291     Cl1348   2.546   1_545  S
C292        C307   1.516       .  S
C293        C355   1.512       .  S
N294        N295   1.318       .  A
N294        N300   1.316       .  A
N294      Mn1346   2.209       .  S
N295        C305   1.354       .  A
N296        N297   1.317       .  A
N296        N298   1.314       .  A
N296       Mn825   2.200       .  S
N297        C306   1.354       .  A
N298        N299   1.321       .  A
N298       Mn302   2.194       .  S
N299        C306   1.355       .  A
N300        N301   1.323       .  A
N300      Mn1869   2.205       .  S
N301        C305   1.355       .  A
Mn302      N1059   2.197   1_456  S
Mn302      N1338   2.209   1_455  S
Mn302      Cl565   2.551       .  S
Mn303      N1329   2.206   1_465  S
Mn303       N818   2.200       .  S
Mn303      N1866   2.205   1_455  S
Cl304     Mn1846   2.540       .  S
Cl304     Mn1335   2.546   1_565  S
Cl304      Mn563   2.551       .  S
C305        C391   1.509       .  S
C306        C319   1.508       .  S
C307        C308   1.531       .  S
C307        C313   1.540       .  S
C307        C311   1.541       .  S
C308        H315   1.086       .  S
C308        C309   1.353       .  D
C309        C310   1.552       .  S
C309        C497   1.486       .  S
C310        C314   1.549       .  S
C310        C312   1.546       .  S
C310        H316   1.103       .  S
C311        H317   1.087       .  S
C311        C312   1.373       .  D
C312        C504   1.507       .  S
C313        H318   1.083       .  S
C313        C314   1.375       .  D
C314        C517   1.516       .  S
C319        C320   1.540       .  S
C319        C325   1.523       .  S
C319        C323   1.544       .  S
C320        H327   1.086       .  S
C320        C321   1.365       .  D
C321        C322   1.538       .  S
C321        C514   1.506       .  S
C322        C326   1.552       .  S
C322        C324   1.546       .  S
C322        H328   1.088       .  S
C323        H329   1.087       .  S
C323        C324   1.382       .  D
C324        C484   1.523       .  S
C325        H330   1.088       .  S
C325        C326   1.349       .  D
C326        C474   1.475       .  S
C331        C332   1.538       .  S
C331        C337   1.543       .  S
C331        C335   1.525       .  S
C332        H339   1.087       .  S
C332        C333   1.358       .  D
C333        C334   1.536       .  S
C333        C477   1.499       .  S
C334        C338   1.561       .  S
C334        C336   1.562       .  S
C334        H340   1.097       .  S
C335        H341   1.087       .  S
C335        C336   1.362       .  D
C336        C467   1.489       .  S
C337        H342   1.084       .  S
C337        C338   1.378       .  D
C338        C454   1.532       .  S
C343        C344   1.542       .  S
C343        C349   1.531       .  S
C343        C347   1.536       .  S
C344        H351   1.084       .  S
C344        C345   1.371       .  D
C345        C346   1.555       .  S
C345        C457   1.515       .  S
C346        C350   1.548       .  S
C346        C348   1.559       .  S
C346        H352   1.108       .  S
C347        H353   1.085       .  S
C347        C348   1.373       .  D
C348        C444   1.517       .  S
C349        H354   1.087       .  S
C349        C350   1.356       .  D
C350        C494   1.484       .  S
C355        C356   1.537       .  S
C355        C361   1.534       .  S
C355        C359   1.543       .  S
C356        H363   1.084       .  S
C356        C357   1.375       .  D
C357        C358   1.555       .  S
C357        C507   1.518       .  S
C358        C362   1.545       .  S
C358        C360   1.540       .  S
C358        H364   1.104       .  S
C359        H365   1.084       .  S
C359        C360   1.369       .  D
C360        C424   1.502       .  S
C361        H366   1.087       .  S
C361        C362   1.357       .  D
C362        C434   1.485       .  S
C367        C368   1.545       .  S
C367        C373   1.536       .  S
C367        C371   1.532       .  S
C368        H375   1.086       .  S
C368        C369   1.378       .  D
C369        C370   1.550       .  S
C369        C427   1.525       .  S
C370        C374   1.540       .  S
C370        C372   1.562       .  S
C370        H376   1.092       .  S
C371        H377   1.085       .  S
C371        C372   1.365       .  D
C372        C447   1.502       .  S
C373        H378   1.086       .  S
C373        C374   1.355       .  D
C374        C414   1.494       .  S
C379        C380   1.534       .  S
C379        C385   1.537       .  S
C379        C383   1.528       .  S
C380        H387   1.084       .  S
C380        C381   1.370       .  D
C381        C382   1.555       .  S
C381        C417   1.507       .  S
C382        C386   1.544       .  S
C382        C384   1.553       .  S
C382        H388   1.102       .  S
C383        H389   1.089       .  S
C383        C384   1.361       .  D
C384        C464   1.490       .  S
C385        H390   1.087       .  S
C385        C386   1.360       .  D
C386        C404   1.502       .  S
C391        C392   1.540       .  S
C391        C397   1.530       .  S
C391        C395   1.540       .  S
C392        H399   1.086       .  S
C392        C393   1.375       .  D
C393        C394   1.549       .  S
C393        C407   1.511       .  S
C394        C398   1.548       .  S
C394        C396   1.542       .  S
C394        H400   1.102       .  S
C395        H401   1.086       .  S
C395        C396   1.369       .  D
C396        C487   1.501       .  S
C397        H402   1.087       .  S
C397        C398   1.353       .  D
C398        C437   1.485       .  S
C403        C404   1.416       .  A
C403        C408   1.415       .  A
C403       Br410   1.936       .  S
C404        C405   1.409       .  A
C405        C406   1.403       .  A
C405       Br412   1.922       .  S
C406        C407   1.421       .  A
C406       Br411   1.933       .  S
C407        C408   1.426       .  A
C408       Br409   1.941       .  S
C413        C414   1.416       .  A
C413        C418   1.414       .  A
C413       Br420   1.927       .  S
C414        C415   1.400       .  A
C415        C416   1.397       .  A
C415       Br422   1.922       .  S
C416        C417   1.412       .  A
C416       Br421   1.902       .  S
C417        C418   1.422       .  A
C418       Br419   1.939       .  S
C423        C424   1.416       .  A
C423        C428   1.417       .  A
C423       Br430   1.936       .  S
C424        C425   1.409       .  A
C425        C426   1.404       .  A
C425       Br432   1.930       .  S
C426        C427   1.422       .  A
C426       Br431   1.930       .  S
C427        C428   1.425       .  A
C428       Br429   1.934       .  S
C433        C434   1.409       .  A
C433        C438   1.407       .  A
C433       Br440   1.934       .  S
C434        C435   1.408       .  A
C435        C436   1.409       .  A
C435       Br442   1.921       .  S
C436        C437   1.414       .  A
C436       Br441   1.935       .  S
C437        C438   1.407       .  A
C438       Br439   1.921       .  S
C443        C444   1.418       .  A
C443        C448   1.404       .  A
C443       Br450   1.912       .  S
C444        C445   1.427       .  A
C445        C446   1.421       .  A
C445       Br452   1.934       .  S
C446        C447   1.412       .  A
C446       Br451   1.931       .  S
C447        C448   1.398       .  A
C448       Br449   1.929       .  S
C453        C454   1.419       .  A
C453        C458   1.410       .  A
C453       Br460   1.908       .  S
C454        C455   1.425       .  A
C455        C456   1.421       .  A
C455       Br462   1.932       .  S
C456        C457   1.418       .  A
C456       Br461   1.931       .  S
C457        C458   1.407       .  A
C458       Br459   1.922       .  S
C463        C464   1.414       .  A
C463        C468   1.412       .  A
C463       Br470   1.931       .  S
C464        C465   1.408       .  A
C465        C466   1.408       .  A
C465       Br472   1.921       .  S
C466        C467   1.407       .  A
C466       Br471   1.933       .  S
C467        C468   1.409       .  A
C468       Br469   1.929       .  S
C473        C474   1.396       .  A
C473        C478   1.400       .  A
C473       Br480   1.934       .  S
C474        C475   1.407       .  A
C475        C476   1.408       .  A
C475       Br482   1.935       .  S
C476        C477   1.420       .  A
C476       Br481   1.928       .  S
C477        C478   1.417       .  A
C478       Br479   1.906       .  S
C483        C484   1.427       .  A
C483        C488   1.421       .  A
C483       Br490   1.931       .  S
C484        C485   1.424       .  A
C485        C486   1.396       .  A
C485       Br492   1.935       .  S
C486        C487   1.402       .  A
C486       Br491   1.922       .  S
C487        C488   1.411       .  A
C488       Br489   1.927       .  S
C493        C494   1.411       .  A
C493        C498   1.410       .  A
C493       Br500   1.934       .  S
C494        C495   1.404       .  A
C495        C496   1.404       .  A
C495       Br502   1.919       .  S
C496        C497   1.413       .  A
C496       Br501   1.933       .  S
C497        C498   1.410       .  A
C498       Br499   1.924       .  S
C503        C504   1.410       .  A
C503        C508   1.406       .  A
C503       Br510   1.921       .  S
C504        C505   1.412       .  A
C505        C506   1.419       .  A
C505       Br512   1.933       .  S
C506        C507   1.428       .  A
C506       Br511   1.937       .  S
C507        C508   1.420       .  A
C508       Br509   1.928       .  S
C513        C514   1.413       .  A
C513        C518   1.407       .  A
C513       Br520   1.932       .  S
C514        C515   1.418       .  A
C515        C516   1.415       .  A
C515       Br522   1.938       .  S
C516        C517   1.425       .  A
C516       Br521   1.942       .  S
C517        C518   1.423       .  A
C518       Br519   1.932       .  S
N523        N524   1.318       .  A
N523        N529   1.315       .  A
N523       Mn552   2.207   1_554  S
N524        C531   1.354       .  A
N525        N527   1.316       .  A
N525        N526   1.321       .  A
N525      Mn1063   2.211       .  S
N526        C532   1.356       .  A
N527        N528   1.322       .  A
N527      Mn1596   2.205       .  S
N528        C532   1.354       .  A
N529        N530   1.324       .  A
N530        C531   1.355       .  A
C531        C628   1.512       .  S
C532        C604   1.513       .  S
N533        N539   1.316       .  A
N533        N534   1.323       .  A
N533       Mn824   2.201   1_554  S
N534        C542   1.354       .  A
N535        N536   1.317       .  A
N535        N537   1.315       .  A
N535       Mn541   2.196       .  S
N536        C543   1.352       .  A
N537        N538   1.320       .  A
N537      Mn1868   2.197   1_554  S
N538        C543   1.353       .  A
N539        N540   1.318       .  A
N539      Mn1585   2.211       .  S
N540        C542   1.355       .  A
Mn541      N1047   2.211   1_565  S
Mn541      N1583   2.211       .  S
Mn541     Cl1087   2.540   1_554  S
C542        C592   1.511       .  S
C543        C640   1.499       .  S
N544        N545   1.325       .  A
N544        N550   1.315       .  A
N544      Mn1857   2.217       .  S
N545        C553   1.358       .  A
N546        N548   1.315       .  A
N546        N547   1.323       .  A
N546      Mn1608   2.206       .  S
N547        C554   1.355       .  A
N548        N549   1.320       .  A
N548       Mn813   2.212       .  S
N549        C554   1.354       .  A
N550        N551   1.317       .  A
N550       Mn564   2.198       .  S
N551        C553   1.354       .  A
Mn552      N1571   2.205   1_556  S
Mn552      N1849   2.217       .  S
Mn552       N809   2.212       .  S
Mn552     Cl1609   2.546       .  S
C553        C568   1.516       .  S
C554        C616   1.512       .  S
N555        N556   1.318       .  A
N555        N561   1.316       .  A
N555      Mn1607   2.209       .  S
N556        C566   1.354       .  A
N557        N558   1.317       .  A
N557        N559   1.314       .  A
N558        C567   1.354       .  A
N559        N560   1.321       .  A
N559       Mn563   2.194       .  S
N560        C567   1.355       .  A
N561        N562   1.323       .  A
N561      Mn1086   2.205       .  S
N562        C566   1.355       .  A
Mn563       N794   2.201       .  S
Mn563      N1842   2.197   1_455  S
Mn563      N1599   2.209   1_455  S
Mn564      N1590   2.206   1_455  S
Mn564      N1083   2.205   1_455  S
Mn564      Cl826   2.544       .  S
Cl565     Mn1063   2.540   1_556  S
Cl565     Mn1596   2.546   1_556  S
Cl565      Mn825   2.544       .  S
C566        C652   1.509       .  S
C567        C580   1.508       .  S
C568        C569   1.531       .  S
C568        C574   1.540       .  S
C568        C572   1.541       .  S
C569        H576   1.086       .  S
C569        C570   1.353       .  D
C570        C571   1.552       .  S
C570        C758   1.486       .  S
C571        C575   1.549       .  S
C571        C573   1.546       .  S
C571        H577   1.103       .  S
C572        H578   1.087       .  S
C572        C573   1.373       .  D
C573        C765   1.507       .  S
C574        H579   1.083       .  S
C574        C575   1.375       .  D
C575        C778   1.516       .  S
C580        C581   1.540       .  S
C580        C586   1.523       .  S
C580        C584   1.544       .  S
C581        H588   1.086       .  S
C581        C582   1.365       .  D
C582        C583   1.538       .  S
C582        C775   1.506       .  S
C583        C587   1.552       .  S
C583        C585   1.546       .  S
C583        H589   1.088       .  S
C584        H590   1.087       .  S
C584        C585   1.382       .  D
C585        C745   1.523       .  S
C586        H591   1.088       .  S
C586        C587   1.349       .  D
C587        C735   1.475       .  S
C592        C593   1.538       .  S
C592        C598   1.543       .  S
C592        C596   1.525       .  S
C593        H600   1.087       .  S
C593        C594   1.358       .  D
C594        C595   1.536       .  S
C594        C738   1.499       .  S
C595        C599   1.561       .  S
C595        C597   1.562       .  S
C595        H601   1.097       .  S
C596        H602   1.087       .  S
C596        C597   1.362       .  D
C597        C728   1.489       .  S
C598        H603   1.084       .  S
C598        C599   1.378       .  D
C599        C715   1.532       .  S
C604        C605   1.542       .  S
C604        C610   1.531       .  S
C604        C608   1.536       .  S
C605        H612   1.084       .  S
C605        C606   1.371       .  D
C606        C607   1.555       .  S
C606        C718   1.515       .  S
C607        C611   1.548       .  S
C607        C609   1.559       .  S
C607        H613   1.108       .  S
C608        H614   1.085       .  S
C608        C609   1.373       .  D
C609        C705   1.517       .  S
C610        H615   1.087       .  S
C610        C611   1.356       .  D
C611        C755   1.484       .  S
C616        C617   1.537       .  S
C616        C622   1.534       .  S
C616        C620   1.543       .  S
C617        H624   1.084       .  S
C617        C618   1.375       .  D
C618        C619   1.555       .  S
C618        C768   1.518       .  S
C619        C623   1.545       .  S
C619        C621   1.540       .  S
C619        H625   1.104       .  S
C620        H626   1.084       .  S
C620        C621   1.369       .  D
C621        C685   1.502       .  S
C622        H627   1.087       .  S
C622        C623   1.357       .  D
C623        C695   1.485       .  S
C628        C629   1.545       .  S
C628        C634   1.536       .  S
C628        C632   1.532       .  S
C629        H636   1.086       .  S
C629        C630   1.378       .  D
C630        C631   1.550       .  S
C630        C688   1.525       .  S
C631        C635   1.540       .  S
C631        C633   1.561       .  S
C631        H637   1.092       .  S
C632        H638   1.085       .  S
C632        C633   1.365       .  D
C633        C708   1.502       .  S
C634        H639   1.086       .  S
C634        C635   1.355       .  D
C635        C675   1.494       .  S
C640        C641   1.534       .  S
C640        C646   1.537       .  S
C640        C644   1.528       .  S
C641        H648   1.084       .  S
C641        C642   1.370       .  D
C642        C643   1.555       .  S
C642        C678   1.507       .  S
C643        C647   1.544       .  S
C643        C645   1.553       .  S
C643        H649   1.102       .  S
C644        H650   1.089       .  S
C644        C645   1.361       .  D
C645        C725   1.490       .  S
C646        H651   1.087       .  S
C646        C647   1.360       .  D
C647        C665   1.502       .  S
C652        C653   1.540       .  S
C652        C658   1.530       .  S
C652        C656   1.540       .  S
C653        H660   1.086       .  S
C653        C654   1.375       .  D
C654        C655   1.549       .  S
C654        C668   1.511       .  S
C655        C659   1.548       .  S
C655        C657   1.542       .  S
C655        H661   1.102       .  S
C656        H662   1.086       .  S
C656        C657   1.369       .  D
C657        C748   1.501       .  S
C658        H663   1.087       .  S
C658        C659   1.353       .  D
C659        C698   1.485       .  S
C664        C665   1.416       .  A
C664        C669   1.415       .  A
C664       Br671   1.936       .  S
C665        C666   1.409       .  A
C666        C667   1.403       .  A
C666       Br673   1.922       .  S
C667        C668   1.421       .  A
C667       Br672   1.933       .  S
C668        C669   1.426       .  A
C669       Br670   1.941       .  S
C674        C675   1.416       .  A
C674        C679   1.414       .  A
C674       Br681   1.927       .  S
C675        C676   1.400       .  A
C676        C677   1.397       .  A
C676       Br683   1.922       .  S
C677        C678   1.412       .  A
C677       Br682   1.902       .  S
C678        C679   1.422       .  A
C679       Br680   1.939       .  S
C684        C685   1.416       .  A
C684        C689   1.417       .  A
C684       Br691   1.936       .  S
C685        C686   1.409       .  A
C686        C687   1.404       .  A
C686       Br693   1.930       .  S
C687        C688   1.422       .  A
C687       Br692   1.930       .  S
C688        C689   1.425       .  A
C689       Br690   1.934       .  S
C694        C695   1.409       .  A
C694        C699   1.407       .  A
C694       Br701   1.934       .  S
C695        C696   1.408       .  A
C696        C697   1.409       .  A
C696       Br703   1.921       .  S
C697        C698   1.414       .  A
C697       Br702   1.935       .  S
C698        C699   1.407       .  A
C699       Br700   1.921       .  S
C704        C705   1.418       .  A
C704        C709   1.404       .  A
C704       Br711   1.912       .  S
C705        C706   1.427       .  A
C706        C707   1.421       .  A
C706       Br713   1.934       .  S
C707        C708   1.412       .  A
C707       Br712   1.931       .  S
C708        C709   1.398       .  A
C709       Br710   1.929       .  S
C714        C715   1.419       .  A
C714        C719   1.410       .  A
C714       Br721   1.908       .  S
C715        C716   1.425       .  A
C716        C717   1.421       .  A
C716       Br723   1.932       .  S
C717        C718   1.418       .  A
C717       Br722   1.931       .  S
C718        C719   1.407       .  A
C719       Br720   1.922       .  S
C724        C725   1.414       .  A
C724        C729   1.412       .  A
C724       Br731   1.931       .  S
C725        C726   1.408       .  A
C726        C727   1.408       .  A
C726       Br733   1.921       .  S
C727        C728   1.407       .  A
C727       Br732   1.933       .  S
C728        C729   1.409       .  A
C729       Br730   1.929       .  S
C734        C735   1.396       .  A
C734        C739   1.400       .  A
C734       Br741   1.934       .  S
C735        C736   1.407       .  A
C736        C737   1.408       .  A
C736       Br743   1.935       .  S
C737        C738   1.420       .  A
C737       Br742   1.928       .  S
C738        C739   1.417       .  A
C739       Br740   1.906       .  S
C744        C745   1.427       .  A
C744        C749   1.421       .  A
C744       Br751   1.931       .  S
C745        C746   1.424       .  A
C746        C747   1.396       .  A
C746       Br753   1.935       .  S
C747        C748   1.402       .  A
C747       Br752   1.922       .  S
C748        C749   1.411       .  A
C749       Br750   1.927       .  S
C754        C755   1.411       .  A
C754        C759   1.410       .  A
C754       Br761   1.934       .  S
C755        C756   1.404       .  A
C756        C757   1.404       .  A
C756       Br763   1.919       .  S
C757        C758   1.413       .  A
C757       Br762   1.933       .  S
C758        C759   1.410       .  A
C759       Br760   1.924       .  S
C764        C765   1.410       .  A
C764        C769   1.406       .  A
C764       Br771   1.921       .  S
C765        C766   1.412       .  A
C766        C767   1.419       .  A
C766       Br773   1.933       .  S
C767        C768   1.428       .  A
C767       Br772   1.937       .  S
C768        C769   1.420       .  A
C769       Br770   1.928       .  S
C774        C775   1.413       .  A
C774        C779   1.407       .  A
C774       Br781   1.932       .  S
C775        C776   1.418       .  A
C776        C777   1.415       .  A
C776       Br783   1.938       .  S
C777        C778   1.425       .  A
C777       Br782   1.942       .  S
C778        C779   1.423       .  A
C779       Br780   1.932       .  S
N784        N785   1.318       .  A
N784        N790   1.315       .  A
N784       Mn813   2.207       .  S
N785        C792   1.354       .  A
N786        N788   1.316       .  A
N786        N787   1.321       .  A
N786      Mn1324   2.211       .  S
N787        C793   1.356       .  A
N788        N789   1.322       .  A
N788      Mn1857   2.205       .  S
N789        C793   1.354       .  A
N790        N791   1.324       .  A
N791        C792   1.355       .  A
C792        C889   1.512       .  S
C793        C865   1.513       .  S
N794        N800   1.316       .  A
N794        N795   1.324       .  A
N795        C803   1.354       .  A
N796        N797   1.317       .  A
N796        N798   1.315       .  A
N796       Mn802   2.196       .  S
N797        C804   1.352       .  A
N798        N799   1.320       .  A
N798      Mn1607   2.197       .  S
N799        C804   1.353       .  A
N800        N801   1.318       .  A
N800      Mn1846   2.211       .  S
N801        C803   1.355       .  A
Mn802      N1308   2.211   1_565  S
Mn802      N1844   2.211       .  S
Mn802     Cl1348   2.540       .  S
C803        C853   1.511       .  S
C804        C901   1.499       .  S
N805        N806   1.325       .  A
N805        N811   1.315       .  A
N805      Mn1596   2.217   1_556  S
N806        C814   1.358       .  A
N807        N809   1.315       .  A
N807        N808   1.323       .  A
N807      Mn1869   2.206       .  S
N808        C815   1.355       .  A
N809        N810   1.320       .  A
N810        C815   1.354       .  A
N811        N812   1.317       .  A
N811       Mn825   2.197       .  S
N812        C814   1.354       .  A
Mn813      N1832   2.205       .  S
Mn813      N1588   2.217       .  S
Mn813     Cl1870   2.546       .  S
C814        C829   1.516       .  S
C815        C877   1.512       .  S
N816        N817   1.318       .  A
N816        N822   1.316       .  A
N816      Mn1868   2.209       .  S
N817        C827   1.354       .  A
N818        N819   1.317       .  A
N818        N820   1.314       .  A
N819        C828   1.354       .  A
N820        N821   1.321       .  A
N820       Mn824   2.194       .  S
N821        C828   1.355       .  A
N822        N823   1.323       .  A
N822      Mn1347   2.205       .  S
N823        C827   1.355       .  A
Mn824      N1581   2.197   1_456  S
Mn824      N1860   2.209   1_455  S
Mn825      N1851   2.206   1_455  S
Mn825      N1344   2.205   1_455  S
Cl826     Mn1324   2.540       .  S
Cl826     Mn1857   2.546       .  S
C827        C913   1.509       .  S
C828        C841   1.508       .  S
C829        C830   1.531       .  S
C829        C835   1.540       .  S
C829        C833   1.541       .  S
C830        H837   1.086       .  S
C830        C831   1.353       .  D
C831        C832   1.552       .  S
C831       C1019   1.486       .  S
C832        C836   1.549       .  S
C832        C834   1.546       .  S
C832        H838   1.103       .  S
C833        H839   1.087       .  S
C833        C834   1.373       .  D
C834       C1026   1.507       .  S
C835        H840   1.083       .  S
C835        C836   1.375       .  D
C836       C1039   1.516       .  S
C841        C842   1.540       .  S
C841        C847   1.523       .  S
C841        C845   1.544       .  S
C842        H849   1.086       .  S
C842        C843   1.365       .  D
C843        C844   1.538       .  S
C843       C1036   1.506       .  S
C844        C848   1.552       .  S
C844        C846   1.546       .  S
C844        H850   1.088       .  S
C845        H851   1.087       .  S
C845        C846   1.382       .  D
C846       C1006   1.523       .  S
C847        H852   1.088       .  S
C847        C848   1.349       .  D
C848        C996   1.475       .  S
C853        C854   1.538       .  S
C853        C859   1.543       .  S
C853        C857   1.525       .  S
C854        H861   1.087       .  S
C854        C855   1.358       .  D
C855        C856   1.536       .  S
C855        C999   1.499       .  S
C856        C860   1.561       .  S
C856        C858   1.562       .  S
C856        H862   1.097       .  S
C857        H863   1.087       .  S
C857        C858   1.362       .  D
C858        C989   1.489       .  S
C859        H864   1.084       .  S
C859        C860   1.378       .  D
C860        C976   1.532       .  S
C865        C866   1.542       .  S
C865        C871   1.531       .  S
C865        C869   1.536       .  S
C866        H873   1.084       .  S
C866        C867   1.371       .  D
C867        C868   1.555       .  S
C867        C979   1.515       .  S
C868        C872   1.548       .  S
C868        C870   1.559       .  S
C868        H874   1.108       .  S
C869        H875   1.085       .  S
C869        C870   1.373       .  D
C870        C966   1.517       .  S
C871        H876   1.087       .  S
C871        C872   1.356       .  D
C872       C1016   1.484       .  S
C877        C878   1.537       .  S
C877        C883   1.534       .  S
C877        C881   1.543       .  S
C878        H885   1.084       .  S
C878        C879   1.375       .  D
C879        C880   1.555       .  S
C879       C1029   1.518       .  S
C880        C884   1.545       .  S
C880        C882   1.540       .  S
C880        H886   1.104       .  S
C881        H887   1.084       .  S
C881        C882   1.369       .  D
C882        C946   1.502       .  S
C883        H888   1.087       .  S
C883        C884   1.357       .  D
C884        C956   1.485       .  S
C889        C890   1.545       .  S
C889        C895   1.536       .  S
C889        C893   1.532       .  S
C890        H897   1.086       .  S
C890        C891   1.378       .  D
C891        C892   1.550       .  S
C891        C949   1.525       .  S
C892        C896   1.540       .  S
C892        C894   1.561       .  S
C892        H898   1.092       .  S
C893        H899   1.085       .  S
C893        C894   1.365       .  D
C894        C969   1.502       .  S
C895        H900   1.086       .  S
C895        C896   1.355       .  D
C896        C936   1.494       .  S
C901        C902   1.534       .  S
C901        C907   1.537       .  S
C901        C905   1.528       .  S
C902        H909   1.084       .  S
C902        C903   1.370       .  D
C903        C904   1.555       .  S
C903        C939   1.507       .  S
C904        C908   1.544       .  S
C904        C906   1.553       .  S
C904        H910   1.102       .  S
C905        H911   1.089       .  S
C905        C906   1.361       .  D
C906        C986   1.490       .  S
C907        H912   1.087       .  S
C907        C908   1.360       .  D
C908        C926   1.502       .  S
C913        C914   1.540       .  S
C913        C919   1.530       .  S
C913        C917   1.540       .  S
C914        H921   1.086       .  S
C914        C915   1.375       .  D
C915        C916   1.549       .  S
C915        C929   1.511       .  S
C916        C920   1.548       .  S
C916        C918   1.542       .  S
C916        H922   1.102       .  S
C917        H923   1.086       .  S
C917        C918   1.369       .  D
C918       C1009   1.501       .  S
C919        H924   1.087       .  S
C919        C920   1.353       .  D
C920        C959   1.485       .  S
C925        C926   1.416       .  A
C925        C930   1.415       .  A
C925       Br932   1.936       .  S
C926        C927   1.409       .  A
C927        C928   1.403       .  A
C927       Br934   1.922       .  S
C928        C929   1.421       .  A
C928       Br933   1.933       .  S
C929        C930   1.426       .  A
C930       Br931   1.941       .  S
C935        C936   1.416       .  A
C935        C940   1.414       .  A
C935       Br942   1.927       .  S
C936        C937   1.400       .  A
C937        C938   1.397       .  A
C937       Br944   1.922       .  S
C938        C939   1.412       .  A
C938       Br943   1.902       .  S
C939        C940   1.422       .  A
C940       Br941   1.939       .  S
C945        C946   1.416       .  A
C945        C950   1.417       .  A
C945       Br952   1.936       .  S
C946        C947   1.409       .  A
C947        C948   1.404       .  A
C947       Br954   1.930       .  S
C948        C949   1.422       .  A
C948       Br953   1.930       .  S
C949        C950   1.425       .  A
C950       Br951   1.934       .  S
C955        C956   1.409       .  A
C955        C960   1.407       .  A
C955       Br962   1.934       .  S
C956        C957   1.408       .  A
C957        C958   1.409       .  A
C957       Br964   1.921       .  S
C958        C959   1.414       .  A
C958       Br963   1.935       .  S
C959        C960   1.407       .  A
C960       Br961   1.921       .  S
C965        C966   1.418       .  A
C965        C970   1.404       .  A
C965       Br972   1.912       .  S
C966        C967   1.427       .  A
C967        C968   1.421       .  A
C967       Br974   1.934       .  S
C968        C969   1.412       .  A
C968       Br973   1.931       .  S
C969        C970   1.398       .  A
C970       Br971   1.929       .  S
C975        C976   1.419       .  A
C975        C980   1.410       .  A
C975       Br982   1.908       .  S
C976        C977   1.425       .  A
C977        C978   1.421       .  A
C977       Br984   1.932       .  S
C978        C979   1.418       .  A
C978       Br983   1.931       .  S
C979        C980   1.407       .  A
C980       Br981   1.922       .  S
C985        C986   1.414       .  A
C985        C990   1.412       .  A
C985       Br992   1.931       .  S
C986        C987   1.408       .  A
C987        C988   1.408       .  A
C987       Br994   1.921       .  S
C988        C989   1.407       .  A
C988       Br993   1.933       .  S
C989        C990   1.409       .  A
C990       Br991   1.929       .  S
C995        C996   1.396       .  A
C995       C1000   1.400       .  A
C995      Br1002   1.934       .  S
C996        C997   1.407       .  A
C997        C998   1.408       .  A
C997      Br1004   1.935       .  S
C998        C999   1.420       .  A
C998      Br1003   1.928       .  S
C999       C1000   1.417       .  A
C1000     Br1001   1.906       .  S
C1005      C1006   1.427       .  A
C1005      C1010   1.421       .  A
C1005     Br1012   1.931       .  S
C1006      C1007   1.424       .  A
C1007      C1008   1.396       .  A
C1007     Br1014   1.935       .  S
C1008      C1009   1.402       .  A
C1008     Br1013   1.922       .  S
C1009      C1010   1.411       .  A
C1010     Br1011   1.927       .  S
C1015      C1016   1.411       .  A
C1015      C1020   1.410       .  A
C1015     Br1022   1.934       .  S
C1016      C1017   1.404       .  A
C1017      C1018   1.404       .  A
C1017     Br1024   1.919       .  S
C1018      C1019   1.413       .  A
C1018     Br1023   1.933       .  S
C1019      C1020   1.410       .  A
C1020     Br1021   1.924       .  S
C1025      C1026   1.410       .  A
C1025      C1030   1.406       .  A
C1025     Br1032   1.921       .  S
C1026      C1027   1.412       .  A
C1027      C1028   1.419       .  A
C1027     Br1034   1.933       .  S
C1028      C1029   1.428       .  A
C1028     Br1033   1.937       .  S
C1029      C1030   1.420       .  A
C1030     Br1031   1.928       .  S
C1035      C1036   1.413       .  A
C1035      C1040   1.407       .  A
C1035     Br1042   1.932       .  S
C1036      C1037   1.418       .  A
C1037      C1038   1.415       .  A
C1037     Br1044   1.938       .  S
C1038      C1039   1.425       .  A
C1038     Br1043   1.942       .  S
C1039      C1040   1.423       .  A
C1040     Br1041   1.932       .  S
N1045      N1046   1.318       .  A
N1045      N1051   1.315       .  A
N1045     Mn1074   2.207   1_655  S
N1046      C1053   1.354       .  A
N1047      N1049   1.316       .  A
N1047      N1048   1.321       .  A
N1048      C1054   1.356       .  A
N1049      N1050   1.322       .  A
N1050      C1054   1.354       .  A
N1051      N1052   1.324       .  A
N1051     Mn1585   2.207   1_645  S
N1052      C1053   1.355       .  A
C1053      C1150   1.512       .  S
C1054      C1126   1.513       .  S
N1055      N1061   1.316       .  A
N1055      N1056   1.323       .  A
N1055     Mn1346   2.201   1_554  S
N1056      C1064   1.354       .  A
N1057      N1058   1.317       .  A
N1057      N1059   1.315       .  A
N1057     Mn1063   2.196   1_655  S
N1058      C1065   1.352       .  A
N1059      N1060   1.320       .  A
N1060      C1065   1.353       .  A
N1061      N1062   1.318       .  A
N1062      C1064   1.354       .  A
Mn1063     N1573   2.207   1_455  S
C1064      C1114   1.511       .  S
C1065      C1162   1.499       .  S
N1066      N1067   1.325       .  A
N1066      N1072   1.315       .  A
N1067      C1075   1.358       .  A
N1068      N1070   1.315       .  A
N1068      N1069   1.323       .  A
N1069      C1076   1.355       .  A
N1070      N1071   1.320       .  A
N1070     Mn1335   2.212   1_655  S
N1071      C1076   1.354       .  A
N1072      N1073   1.317       .  A
N1072     Mn1086   2.197   1_545  S
N1073      C1075   1.354       .  A
Mn1074     N1331   2.212   1_454  S
C1075      C1090   1.516       .  S
C1076      C1138   1.512       .  S
N1077      N1078   1.318       .  A
N1077      N1083   1.316       .  A
N1078      C1088   1.354       .  A
N1079      N1080   1.317       .  A
N1079      N1081   1.314       .  A
N1079     Mn1608   2.200       .  S
N1080      C1089   1.354       .  A
N1081      N1082   1.321       .  A
N1081     Mn1085   2.194       .  S
N1082      C1089   1.355       .  A
N1083      N1084   1.323       .  A
N1084      C1088   1.355       .  A
Mn1085     N1316   2.201       .  S
Mn1085    Cl1870   2.551       .  S
Mn1086     N1601   2.200       .  S
Mn1086    Cl1348   2.544       .  S
Cl1087    Mn1868   2.551       .  S
Cl1087    Mn1347   2.544       .  S
C1088      C1174   1.509       .  S
C1089      C1102   1.508       .  S
C1090      C1091   1.531       .  S
C1090      C1096   1.540       .  S
C1090      C1094   1.541       .  S
C1091      H1098   1.086       .  S
C1091      C1092   1.353       .  D
C1092      C1093   1.552       .  S
C1092      C1280   1.486       .  S
C1093      C1097   1.549       .  S
C1093      C1095   1.546       .  S
C1093      H1099   1.103       .  S
C1094      H1100   1.087       .  S
C1094      C1095   1.373       .  D
C1095      C1287   1.507       .  S
C1096      H1101   1.083       .  S
C1096      C1097   1.375       .  D
C1097      C1300   1.516       .  S
C1102      C1103   1.540       .  S
C1102      C1108   1.523       .  S
C1102      C1106   1.544       .  S
C1103      H1110   1.086       .  S
C1103      C1104   1.365       .  D
C1104      C1105   1.538       .  S
C1104      C1297   1.506       .  S
C1105      C1109   1.552       .  S
C1105      C1107   1.546       .  S
C1105      H1111   1.088       .  S
C1106      H1112   1.087       .  S
C1106      C1107   1.382       .  D
C1107      C1267   1.523       .  S
C1108      H1113   1.088       .  S
C1108      C1109   1.349       .  D
C1109      C1257   1.475       .  S
C1114      C1115   1.538       .  S
C1114      C1120   1.543       .  S
C1114      C1118   1.525       .  S
C1115      H1122   1.087       .  S
C1115      C1116   1.358       .  D
C1116      C1117   1.536       .  S
C1116      C1260   1.498       .  S
C1117      C1121   1.561       .  S
C1117      C1119   1.562       .  S
C1117      H1123   1.097       .  S
C1118      H1124   1.087       .  S
C1118      C1119   1.362       .  D
C1119      C1250   1.488       .  S
C1120      H1125   1.084       .  S
C1120      C1121   1.378       .  D
C1121      C1237   1.532       .  S
C1126      C1127   1.542       .  S
C1126      C1132   1.531       .  S
C1126      C1130   1.536       .  S
C1127      H1134   1.084       .  S
C1127      C1128   1.371       .  D
C1128      C1129   1.555       .  S
C1128      C1240   1.515       .  S
C1129      C1133   1.548       .  S
C1129      C1131   1.559       .  S
C1129      H1135   1.108       .  S
C1130      H1136   1.085       .  S
C1130      C1131   1.373       .  D
C1131      C1227   1.517       .  S
C1132      H1137   1.087       .  S
C1132      C1133   1.356       .  D
C1133      C1277   1.483       .  S
C1138      C1139   1.537       .  S
C1138      C1144   1.534       .  S
C1138      C1142   1.543       .  S
C1139      H1146   1.084       .  S
C1139      C1140   1.375       .  D
C1140      C1141   1.555       .  S
C1140      C1290   1.517       .  S
C1141      C1145   1.545       .  S
C1141      C1143   1.540       .  S
C1141      H1147   1.104       .  S
C1142      H1148   1.084       .  S
C1142      C1143   1.369       .  D
C1143      C1207   1.502       .  S
C1144      H1149   1.087       .  S
C1144      C1145   1.357       .  D
C1145      C1217   1.485       .  S
C1150      C1151   1.545       .  S
C1150      C1156   1.536       .  S
C1150      C1154   1.532       .  S
C1151      H1158   1.086       .  S
C1151      C1152   1.378       .  D
C1152      C1153   1.550       .  S
C1152      C1210   1.525       .  S
C1153      C1157   1.540       .  S
C1153      C1155   1.561       .  S
C1153      H1159   1.092       .  S
C1154      H1160   1.085       .  S
C1154      C1155   1.365       .  D
C1155      C1230   1.502       .  S
C1156      H1161   1.086       .  S
C1156      C1157   1.355       .  D
C1157      C1197   1.494       .  S
C1162      C1163   1.534       .  S
C1162      C1168   1.537       .  S
C1162      C1166   1.528       .  S
C1163      H1170   1.084       .  S
C1163      C1164   1.370       .  D
C1164      C1165   1.555       .  S
C1164      C1200   1.507       .  S
C1165      C1169   1.544       .  S
C1165      C1167   1.553       .  S
C1165      H1171   1.102       .  S
C1166      H1172   1.089       .  S
C1166      C1167   1.361       .  D
C1167      C1247   1.490       .  S
C1168      H1173   1.087       .  S
C1168      C1169   1.360       .  D
C1169      C1187   1.502       .  S
C1174      C1175   1.541       .  S
C1174      C1180   1.530       .  S
C1174      C1178   1.540       .  S
C1175      H1182   1.086       .  S
C1175      C1176   1.375       .  D
C1176      C1177   1.549       .  S
C1176      C1190   1.512       .  S
C1177      C1181   1.548       .  S
C1177      C1179   1.542       .  S
C1177      H1183   1.102       .  S
C1178      H1184   1.086       .  S
C1178      C1179   1.369       .  D
C1179      C1270   1.501       .  S
C1180      H1185   1.087       .  S
C1180      C1181   1.353       .  D
C1181      C1220   1.485       .  S
C1186      C1187   1.416       .  A
C1186      C1191   1.415       .  A
C1186     Br1193   1.936       .  S
C1187      C1188   1.409       .  A
C1188      C1189   1.403       .  A
C1188     Br1195   1.922       .  S
C1189      C1190   1.421       .  A
C1189     Br1194   1.933       .  S
C1190      C1191   1.426       .  A
C1191     Br1192   1.941       .  S
C1196      C1197   1.416       .  A
C1196      C1201   1.414       .  A
C1196     Br1203   1.927       .  S
C1197      C1198   1.400       .  A
C1198      C1199   1.397       .  A
C1198     Br1205   1.922       .  S
C1199      C1200   1.412       .  A
C1199     Br1204   1.902       .  S
C1200      C1201   1.423       .  A
C1201     Br1202   1.939       .  S
C1206      C1207   1.416       .  A
C1206      C1211   1.417       .  A
C1206     Br1213   1.936       .  S
C1207      C1208   1.409       .  A
C1208      C1209   1.404       .  A
C1208     Br1215   1.930       .  S
C1209      C1210   1.422       .  A
C1209     Br1214   1.930       .  S
C1210      C1211   1.425       .  A
C1211     Br1212   1.934       .  S
C1216      C1217   1.409       .  A
C1216      C1221   1.407       .  A
C1216     Br1223   1.934       .  S
C1217      C1218   1.408       .  A
C1218      C1219   1.409       .  A
C1218     Br1225   1.921       .  S
C1219      C1220   1.414       .  A
C1219     Br1224   1.935       .  S
C1220      C1221   1.407       .  A
C1221     Br1222   1.921       .  S
C1226      C1227   1.418       .  A
C1226      C1231   1.404       .  A
C1226     Br1233   1.912       .  S
C1227      C1228   1.427       .  A
C1228      C1229   1.421       .  A
C1228     Br1235   1.934       .  S
C1229      C1230   1.412       .  A
C1229     Br1234   1.931       .  S
C1230      C1231   1.398       .  A
C1231     Br1232   1.929       .  S
C1236      C1237   1.419       .  A
C1236      C1241   1.410       .  A
C1236     Br1243   1.908       .  S
C1237      C1238   1.425       .  A
C1238      C1239   1.421       .  A
C1238     Br1245   1.931       .  S
C1239      C1240   1.418       .  A
C1239     Br1244   1.931       .  S
C1240      C1241   1.407       .  A
C1241     Br1242   1.922       .  S
C1246      C1247   1.414       .  A
C1246      C1251   1.412       .  A
C1246     Br1253   1.931       .  S
C1247      C1248   1.408       .  A
C1248      C1249   1.408       .  A
C1248     Br1255   1.921       .  S
C1249      C1250   1.407       .  A
C1249     Br1254   1.933       .  S
C1250      C1251   1.409       .  A
C1251     Br1252   1.929       .  S
C1256      C1257   1.397       .  A
C1256      C1261   1.400       .  A
C1256     Br1263   1.934       .  S
C1257      C1258   1.407       .  A
C1258      C1259   1.408       .  A
C1258     Br1265   1.935       .  S
C1259      C1260   1.420       .  A
C1259     Br1264   1.928       .  S
C1260      C1261   1.417       .  A
C1261     Br1262   1.906       .  S
C1266      C1267   1.427       .  A
C1266      C1271   1.421       .  A
C1266     Br1273   1.932       .  S
C1267      C1268   1.424       .  A
C1268      C1269   1.396       .  A
C1268     Br1275   1.935       .  S
C1269      C1270   1.402       .  A
C1269     Br1274   1.922       .  S
C1270      C1271   1.411       .  A
C1271     Br1272   1.927       .  S
C1276      C1277   1.411       .  A
C1276      C1281   1.410       .  A
C1276     Br1283   1.934       .  S
C1277      C1278   1.404       .  A
C1278      C1279   1.404       .  A
C1278     Br1285   1.919       .  S
C1279      C1280   1.413       .  A
C1279     Br1284   1.933       .  S
C1280      C1281   1.410       .  A
C1281     Br1282   1.924       .  S
C1286      C1287   1.410       .  A
C1286      C1291   1.406       .  A
C1286     Br1293   1.921       .  S
C1287      C1288   1.412       .  A
C1288      C1289   1.419       .  A
C1288     Br1295   1.933       .  S
C1289      C1290   1.428       .  A
C1289     Br1294   1.937       .  S
C1290      C1291   1.420       .  A
C1291     Br1292   1.928       .  S
C1296      C1297   1.413       .  A
C1296      C1301   1.407       .  A
C1296     Br1303   1.932       .  S
C1297      C1298   1.418       .  A
C1298      C1299   1.415       .  A
C1298     Br1305   1.938       .  S
C1299      C1300   1.425       .  A
C1299     Br1304   1.942       .  S
C1300      C1301   1.423       .  A
C1301     Br1302   1.932       .  S
N1306      N1307   1.318       .  A
N1306      N1312   1.315       .  A
N1306     Mn1335   2.207   1_655  S
N1307      C1314   1.354       .  A
N1308      N1310   1.316       .  A
N1308      N1309   1.321       .  A
N1309      C1315   1.356       .  A
N1310      N1311   1.322       .  A
N1311      C1315   1.354       .  A
N1312      N1313   1.324       .  A
N1312     Mn1846   2.207   1_645  S
N1313      C1314   1.355       .  A
C1314      C1411   1.512       .  S
C1315      C1387   1.513       .  S
N1316      N1322   1.316       .  A
N1316      N1317   1.323       .  A
N1317      C1325   1.354       .  A
N1318      N1319   1.318       .  A
N1318      N1320   1.315       .  A
N1318     Mn1324   2.196   1_655  S
N1319      C1326   1.352       .  A
N1320      N1321   1.320       .  A
N1321      C1326   1.353       .  A
N1322      N1323   1.318       .  A
N1323      C1325   1.355       .  A
Mn1324     N1834   2.207   1_455  S
C1325      C1375   1.511       .  S
C1326      C1423   1.499       .  S
N1327      N1328   1.325       .  A
N1327      N1333   1.315       .  A
N1328      C1336   1.358       .  A
N1329      N1331   1.315       .  A
N1329      N1330   1.323       .  A
N1330      C1337   1.355       .  A
N1331      N1332   1.320       .  A
N1332      C1337   1.354       .  A
N1333      N1334   1.317       .  A
N1333     Mn1347   2.197   1_545  S
N1334      C1336   1.353       .  A
C1336      C1351   1.516       .  S
C1337      C1399   1.512       .  S
N1338      N1339   1.318       .  A
N1338      N1344   1.316       .  A
N1339      C1349   1.354       .  A
N1340      N1341   1.317       .  A
N1340      N1342   1.314       .  A
N1340     Mn1869   2.200       .  S
N1341      C1350   1.354       .  A
N1342      N1343   1.321       .  A
N1342     Mn1346   2.194       .  S
N1343      C1350   1.355       .  A
N1344      N1345   1.323       .  A
N1345      C1349   1.355       .  A
Mn1346    Cl1609   2.551       .  S
Mn1347     N1862   2.200       .  S
Cl1348    Mn1607   2.551       .  S
C1349      C1435   1.509       .  S
C1350      C1363   1.508       .  S
C1351      C1352   1.531       .  S
C1351      C1357   1.540       .  S
C1351      C1355   1.541       .  S
C1352      H1359   1.086       .  S
C1352      C1353   1.353       .  D
C1353      C1354   1.552       .  S
C1353      C1541   1.486       .  S
C1354      C1358   1.549       .  S
C1354      C1356   1.546       .  S
C1354      H1360   1.103       .  S
C1355      H1361   1.087       .  S
C1355      C1356   1.373       .  D
C1356      C1548   1.507       .  S
C1357      H1362   1.083       .  S
C1357      C1358   1.375       .  D
C1358      C1561   1.516       .  S
C1363      C1364   1.540       .  S
C1363      C1369   1.523       .  S
C1363      C1367   1.544       .  S
C1364      H1371   1.086       .  S
C1364      C1365   1.365       .  D
C1365      C1366   1.538       .  S
C1365      C1558   1.506       .  S
C1366      C1370   1.552       .  S
C1366      C1368   1.546       .  S
C1366      H1372   1.088       .  S
C1367      H1373   1.087       .  S
C1367      C1368   1.382       .  D
C1368      C1528   1.523       .  S
C1369      H1374   1.088       .  S
C1369      C1370   1.349       .  D
C1370      C1518   1.475       .  S
C1375      C1376   1.538       .  S
C1375      C1381   1.543       .  S
C1375      C1379   1.525       .  S
C1376      H1383   1.087       .  S
C1376      C1377   1.358       .  D
C1377      C1378   1.536       .  S
C1377      C1521   1.498       .  S
C1378      C1382   1.561       .  S
C1378      C1380   1.562       .  S
C1378      H1384   1.097       .  S
C1379      H1385   1.087       .  S
C1379      C1380   1.362       .  D
C1380      C1511   1.488       .  S
C1381      H1386   1.084       .  S
C1381      C1382   1.378       .  D
C1382      C1498   1.532       .  S
C1387      C1388   1.542       .  S
C1387      C1393   1.531       .  S
C1387      C1391   1.536       .  S
C1388      H1395   1.084       .  S
C1388      C1389   1.371       .  D
C1389      C1390   1.555       .  S
C1389      C1501   1.515       .  S
C1390      C1394   1.548       .  S
C1390      C1392   1.559       .  S
C1390      H1396   1.108       .  S
C1391      H1397   1.085       .  S
C1391      C1392   1.373       .  D
C1392      C1488   1.517       .  S
C1393      H1398   1.087       .  S
C1393      C1394   1.356       .  D
C1394      C1538   1.483       .  S
C1399      C1400   1.537       .  S
C1399      C1405   1.534       .  S
C1399      C1403   1.543       .  S
C1400      H1407   1.084       .  S
C1400      C1401   1.375       .  D
C1401      C1402   1.555       .  S
C1401      C1551   1.517       .  S
C1402      C1406   1.545       .  S
C1402      C1404   1.540       .  S
C1402      H1408   1.104       .  S
C1403      H1409   1.084       .  S
C1403      C1404   1.369       .  D
C1404      C1468   1.502       .  S
C1405      H1410   1.087       .  S
C1405      C1406   1.357       .  D
C1406      C1478   1.485       .  S
C1411      C1412   1.545       .  S
C1411      C1417   1.536       .  S
C1411      C1415   1.532       .  S
C1412      H1419   1.086       .  S
C1412      C1413   1.378       .  D
C1413      C1414   1.550       .  S
C1413      C1471   1.525       .  S
C1414      C1418   1.540       .  S
C1414      C1416   1.561       .  S
C1414      H1420   1.092       .  S
C1415      H1421   1.085       .  S
C1415      C1416   1.365       .  D
C1416      C1491   1.502       .  S
C1417      H1422   1.086       .  S
C1417      C1418   1.355       .  D
C1418      C1458   1.494       .  S
C1423      C1424   1.535       .  S
C1423      C1429   1.537       .  S
C1423      C1427   1.528       .  S
C1424      H1431   1.084       .  S
C1424      C1425   1.370       .  D
C1425      C1426   1.555       .  S
C1425      C1461   1.507       .  S
C1426      C1430   1.544       .  S
C1426      C1428   1.553       .  S
C1426      H1432   1.102       .  S
C1427      H1433   1.089       .  S
C1427      C1428   1.361       .  D
C1428      C1508   1.490       .  S
C1429      H1434   1.087       .  S
C1429      C1430   1.360       .  D
C1430      C1448   1.502       .  S
C1435      C1436   1.541       .  S
C1435      C1441   1.530       .  S
C1435      C1439   1.540       .  S
C1436      H1443   1.086       .  S
C1436      C1437   1.375       .  D
C1437      C1438   1.549       .  S
C1437      C1451   1.512       .  S
C1438      C1442   1.548       .  S
C1438      C1440   1.542       .  S
C1438      H1444   1.102       .  S
C1439      H1445   1.086       .  S
C1439      C1440   1.369       .  D
C1440      C1531   1.501       .  S
C1441      H1446   1.087       .  S
C1441      C1442   1.353       .  D
C1442      C1481   1.485       .  S
C1447      C1448   1.416       .  A
C1447      C1452   1.415       .  A
C1447     Br1454   1.936       .  S
C1448      C1449   1.409       .  A
C1449      C1450   1.403       .  A
C1449     Br1456   1.922       .  S
C1450      C1451   1.421       .  A
C1450     Br1455   1.933       .  S
C1451      C1452   1.426       .  A
C1452     Br1453   1.941       .  S
C1457      C1458   1.416       .  A
C1457      C1462   1.414       .  A
C1457     Br1464   1.927       .  S
C1458      C1459   1.400       .  A
C1459      C1460   1.397       .  A
C1459     Br1466   1.922       .  S
C1460      C1461   1.412       .  A
C1460     Br1465   1.902       .  S
C1461      C1462   1.423       .  A
C1462     Br1463   1.939       .  S
C1467      C1468   1.416       .  A
C1467      C1472   1.417       .  A
C1467     Br1474   1.936       .  S
C1468      C1469   1.409       .  A
C1469      C1470   1.404       .  A
C1469     Br1476   1.930       .  S
C1470      C1471   1.422       .  A
C1470     Br1475   1.930       .  S
C1471      C1472   1.425       .  A
C1472     Br1473   1.934       .  S
C1477      C1478   1.409       .  A
C1477      C1482   1.407       .  A
C1477     Br1484   1.934       .  S
C1478      C1479   1.408       .  A
C1479      C1480   1.409       .  A
C1479     Br1486   1.921       .  S
C1480      C1481   1.414       .  A
C1480     Br1485   1.935       .  S
C1481      C1482   1.407       .  A
C1482     Br1483   1.921       .  S
C1487      C1488   1.418       .  A
C1487      C1492   1.404       .  A
C1487     Br1494   1.912       .  S
C1488      C1489   1.427       .  A
C1489      C1490   1.421       .  A
C1489     Br1496   1.934       .  S
C1490      C1491   1.412       .  A
C1490     Br1495   1.931       .  S
C1491      C1492   1.398       .  A
C1492     Br1493   1.929       .  S
C1497      C1498   1.419       .  A
C1497      C1502   1.410       .  A
C1497     Br1504   1.908       .  S
C1498      C1499   1.425       .  A
C1499      C1500   1.421       .  A
C1499     Br1506   1.931       .  S
C1500      C1501   1.418       .  A
C1500     Br1505   1.931       .  S
C1501      C1502   1.408       .  A
C1502     Br1503   1.922       .  S
C1507      C1508   1.414       .  A
C1507      C1512   1.412       .  A
C1507     Br1514   1.931       .  S
C1508      C1509   1.408       .  A
C1509      C1510   1.408       .  A
C1509     Br1516   1.921       .  S
C1510      C1511   1.407       .  A
C1510     Br1515   1.933       .  S
C1511      C1512   1.409       .  A
C1512     Br1513   1.929       .  S
C1517      C1518   1.397       .  A
C1517      C1522   1.400       .  A
C1517     Br1524   1.934       .  S
C1518      C1519   1.407       .  A
C1519      C1520   1.408       .  A
C1519     Br1526   1.935       .  S
C1520      C1521   1.420       .  A
C1520     Br1525   1.928       .  S
C1521      C1522   1.417       .  A
C1522     Br1523   1.906       .  S
C1527      C1528   1.427       .  A
C1527      C1532   1.421       .  A
C1527     Br1534   1.932       .  S
C1528      C1529   1.424       .  A
C1529      C1530   1.396       .  A
C1529     Br1536   1.935       .  S
C1530      C1531   1.402       .  A
C1530     Br1535   1.922       .  S
C1531      C1532   1.412       .  A
C1532     Br1533   1.927       .  S
C1537      C1538   1.411       .  A
C1537      C1542   1.410       .  A
C1537     Br1544   1.934       .  S
C1538      C1539   1.404       .  A
C1539      C1540   1.404       .  A
C1539     Br1546   1.919       .  S
C1540      C1541   1.413       .  A
C1540     Br1545   1.933       .  S
C1541      C1542   1.410       .  A
C1542     Br1543   1.924       .  S
C1547      C1548   1.410       .  A
C1547      C1552   1.406       .  A
C1547     Br1554   1.922       .  S
C1548      C1549   1.412       .  A
C1549      C1550   1.419       .  A
C1549     Br1556   1.933       .  S
C1550      C1551   1.428       .  A
C1550     Br1555   1.937       .  S
C1551      C1552   1.420       .  A
C1552     Br1553   1.928       .  S
C1557      C1558   1.413       .  A
C1557      C1562   1.407       .  A
C1557     Br1564   1.932       .  S
C1558      C1559   1.418       .  A
C1559      C1560   1.415       .  A
C1559     Br1566   1.938       .  S
C1560      C1561   1.425       .  A
C1560     Br1565   1.942       .  S
C1561      C1562   1.423       .  A
C1562     Br1563   1.932       .  S
N1567      N1568   1.318       .  A
N1567      N1573   1.315       .  A
N1567     Mn1596   2.207   1_655  S
N1568      C1575   1.354       .  A
N1569      N1571   1.316       .  A
N1569      N1570   1.321       .  A
N1570      C1576   1.356       .  A
N1571      N1572   1.322       .  A
N1572      C1576   1.354       .  A
N1573      N1574   1.324       .  A
N1574      C1575   1.355       .  A
C1575      C1672   1.512       .  S
C1576      C1648   1.513       .  S
N1577      N1583   1.316       .  A
N1577      N1578   1.323       .  A
N1577     Mn1868   2.201   1_554  S
N1578      C1586   1.354       .  A
N1579      N1580   1.317       .  A
N1579      N1581   1.315       .  A
N1579     Mn1585   2.196   1_655  S
N1580      C1587   1.352       .  A
N1581      N1582   1.320       .  A
N1582      C1587   1.353       .  A
N1583      N1584   1.318       .  A
N1584      C1586   1.355       .  A
C1586      C1636   1.511       .  S
C1587      C1684   1.499       .  S
N1588      N1589   1.325       .  A
N1588      N1594   1.315       .  A
N1589      C1597   1.358       .  A
N1590      N1592   1.315       .  A
N1590      N1591   1.323       .  A
N1591      C1598   1.355       .  A
N1592      N1593   1.320       .  A
N1592     Mn1857   2.212   1_655  S
N1593      C1598   1.354       .  A
N1594      N1595   1.317       .  A
N1594     Mn1608   2.197       .  S
N1595      C1597   1.354       .  A
Mn1596     N1853   2.212   1_454  S
C1597      C1612   1.516       .  S
C1598      C1660   1.512       .  S
N1599      N1600   1.318       .  A
N1599      N1605   1.316       .  A
N1600      C1610   1.354       .  A
N1601      N1602   1.317       .  A
N1601      N1603   1.314       .  A
N1602      C1611   1.354       .  A
N1603      N1604   1.321       .  A
N1603     Mn1607   2.194       .  S
N1604      C1611   1.355       .  A
N1605      N1606   1.323       .  A
N1606      C1610   1.355       .  A
Mn1607     N1838   2.201       .  S
Mn1608    Cl1870   2.544       .  S
Cl1609    Mn1869   2.544       .  S
C1610      C1696   1.509       .  S
C1611      C1624   1.508       .  S
C1612      C1613   1.531       .  S
C1612      C1618   1.540       .  S
C1612      C1616   1.541       .  S
C1613      H1620   1.086       .  S
C1613      C1614   1.353       .  D
C1614      C1615   1.552       .  S
C1614      C1802   1.486       .  S
C1615      C1619   1.549       .  S
C1615      C1617   1.546       .  S
C1615      H1621   1.103       .  S
C1616      H1622   1.087       .  S
C1616      C1617   1.373       .  D
C1617      C1809   1.507       .  S
C1618      H1623   1.083       .  S
C1618      C1619   1.375       .  D
C1619      C1822   1.516       .  S
C1624      C1625   1.540       .  S
C1624      C1630   1.523       .  S
C1624      C1628   1.544       .  S
C1625      H1632   1.086       .  S
C1625      C1626   1.365       .  D
C1626      C1627   1.538       .  S
C1626      C1819   1.506       .  S
C1627      C1631   1.552       .  S
C1627      C1629   1.546       .  S
C1627      H1633   1.088       .  S
C1628      H1634   1.087       .  S
C1628      C1629   1.382       .  D
C1629      C1789   1.523       .  S
C1630      H1635   1.088       .  S
C1630      C1631   1.349       .  D
C1631      C1779   1.475       .  S
C1636      C1637   1.538       .  S
C1636      C1642   1.543       .  S
C1636      C1640   1.525       .  S
C1637      H1644   1.087       .  S
C1637      C1638   1.358       .  D
C1638      C1639   1.536       .  S
C1638      C1782   1.498       .  S
C1639      C1643   1.561       .  S
C1639      C1641   1.562       .  S
C1639      H1645   1.097       .  S
C1640      H1646   1.087       .  S
C1640      C1641   1.362       .  D
C1641      C1772   1.488       .  S
C1642      H1647   1.084       .  S
C1642      C1643   1.378       .  D
C1643      C1759   1.532       .  S
C1648      C1649   1.542       .  S
C1648      C1654   1.531       .  S
C1648      C1652   1.536       .  S
C1649      H1656   1.084       .  S
C1649      C1650   1.371       .  D
C1650      C1651   1.555       .  S
C1650      C1762   1.515       .  S
C1651      C1655   1.548       .  S
C1651      C1653   1.559       .  S
C1651      H1657   1.108       .  S
C1652      H1658   1.085       .  S
C1652      C1653   1.373       .  D
C1653      C1749   1.517       .  S
C1654      H1659   1.087       .  S
C1654      C1655   1.356       .  D
C1655      C1799   1.483       .  S
C1660      C1661   1.537       .  S
C1660      C1666   1.534       .  S
C1660      C1664   1.543       .  S
C1661      H1668   1.084       .  S
C1661      C1662   1.375       .  D
C1662      C1663   1.555       .  S
C1662      C1812   1.517       .  S
C1663      C1667   1.545       .  S
C1663      C1665   1.540       .  S
C1663      H1669   1.104       .  S
C1664      H1670   1.084       .  S
C1664      C1665   1.369       .  D
C1665      C1729   1.502       .  S
C1666      H1671   1.087       .  S
C1666      C1667   1.357       .  D
C1667      C1739   1.485       .  S
C1672      C1673   1.545       .  S
C1672      C1678   1.536       .  S
C1672      C1676   1.532       .  S
C1673      H1680   1.086       .  S
C1673      C1674   1.378       .  D
C1674      C1675   1.550       .  S
C1674      C1732   1.525       .  S
C1675      C1679   1.540       .  S
C1675      C1677   1.561       .  S
C1675      H1681   1.092       .  S
C1676      H1682   1.085       .  S
C1676      C1677   1.365       .  D
C1677      C1752   1.502       .  S
C1678      H1683   1.086       .  S
C1678      C1679   1.355       .  D
C1679      C1719   1.494       .  S
C1684      C1685   1.534       .  S
C1684      C1690   1.537       .  S
C1684      C1688   1.528       .  S
C1685      H1692   1.084       .  S
C1685      C1686   1.370       .  D
C1686      C1687   1.555       .  S
C1686      C1722   1.507       .  S
C1687      C1691   1.544       .  S
C1687      C1689   1.553       .  S
C1687      H1693   1.102       .  S
C1688      H1694   1.089       .  S
C1688      C1689   1.361       .  D
C1689      C1769   1.490       .  S
C1690      H1695   1.087       .  S
C1690      C1691   1.360       .  D
C1691      C1709   1.502       .  S
C1696      C1697   1.541       .  S
C1696      C1702   1.530       .  S
C1696      C1700   1.540       .  S
C1697      H1704   1.086       .  S
C1697      C1698   1.375       .  D
C1698      C1699   1.549       .  S
C1698      C1712   1.512       .  S
C1699      C1703   1.548       .  S
C1699      C1701   1.542       .  S
C1699      H1705   1.102       .  S
C1700      H1706   1.086       .  S
C1700      C1701   1.369       .  D
C1701      C1792   1.501       .  S
C1702      H1707   1.087       .  S
C1702      C1703   1.353       .  D
C1703      C1742   1.485       .  S
C1708      C1709   1.416       .  A
C1708      C1713   1.415       .  A
C1708     Br1715   1.936       .  S
C1709      C1710   1.409       .  A
C1710      C1711   1.403       .  A
C1710     Br1717   1.922       .  S
C1711      C1712   1.421       .  A
C1711     Br1716   1.933       .  S
C1712      C1713   1.426       .  A
C1713     Br1714   1.941       .  S
C1718      C1719   1.416       .  A
C1718      C1723   1.414       .  A
C1718     Br1725   1.927       .  S
C1719      C1720   1.400       .  A
C1720      C1721   1.397       .  A
C1720     Br1727   1.922       .  S
C1721      C1722   1.412       .  A
C1721     Br1726   1.902       .  S
C1722      C1723   1.423       .  A
C1723     Br1724   1.939       .  S
C1728      C1729   1.416       .  A
C1728      C1733   1.417       .  A
C1728     Br1735   1.936       .  S
C1729      C1730   1.409       .  A
C1730      C1731   1.404       .  A
C1730     Br1737   1.930       .  S
C1731      C1732   1.422       .  A
C1731     Br1736   1.930       .  S
C1732      C1733   1.425       .  A
C1733     Br1734   1.934       .  S
C1738      C1739   1.409       .  A
C1738      C1743   1.407       .  A
C1738     Br1745   1.934       .  S
C1739      C1740   1.408       .  A
C1740      C1741   1.409       .  A
C1740     Br1747   1.921       .  S
C1741      C1742   1.414       .  A
C1741     Br1746   1.935       .  S
C1742      C1743   1.407       .  A
C1743     Br1744   1.921       .  S
C1748      C1749   1.418       .  A
C1748      C1753   1.404       .  A
C1748     Br1755   1.912       .  S
C1749      C1750   1.427       .  A
C1750      C1751   1.421       .  A
C1750     Br1757   1.934       .  S
C1751      C1752   1.412       .  A
C1751     Br1756   1.931       .  S
C1752      C1753   1.398       .  A
C1753     Br1754   1.929       .  S
C1758      C1759   1.419       .  A
C1758      C1763   1.410       .  A
C1758     Br1765   1.908       .  S
C1759      C1760   1.425       .  A
C1760      C1761   1.421       .  A
C1760     Br1767   1.931       .  S
C1761      C1762   1.418       .  A
C1761     Br1766   1.931       .  S
C1762      C1763   1.408       .  A
C1763     Br1764   1.922       .  S
C1768      C1769   1.414       .  A
C1768      C1773   1.412       .  A
C1768     Br1775   1.931       .  S
C1769      C1770   1.408       .  A
C1770      C1771   1.408       .  A
C1770     Br1777   1.921       .  S
C1771      C1772   1.407       .  A
C1771     Br1776   1.933       .  S
C1772      C1773   1.409       .  A
C1773     Br1774   1.929       .  S
C1778      C1779   1.397       .  A
C1778      C1783   1.400       .  A
C1778     Br1785   1.934       .  S
C1779      C1780   1.407       .  A
C1780      C1781   1.408       .  A
C1780     Br1787   1.935       .  S
C1781      C1782   1.420       .  A
C1781     Br1786   1.928       .  S
C1782      C1783   1.417       .  A
C1783     Br1784   1.906       .  S
C1788      C1789   1.427       .  A
C1788      C1793   1.421       .  A
C1788     Br1795   1.932       .  S
C1789      C1790   1.424       .  A
C1790      C1791   1.396       .  A
C1790     Br1797   1.935       .  S
C1791      C1792   1.402       .  A
C1791     Br1796   1.922       .  S
C1792      C1793   1.412       .  A
C1793     Br1794   1.927       .  S
C1798      C1799   1.411       .  A
C1798      C1803   1.410       .  A
C1798     Br1805   1.934       .  S
C1799      C1800   1.404       .  A
C1800      C1801   1.404       .  A
C1800     Br1807   1.919       .  S
C1801      C1802   1.413       .  A
C1801     Br1806   1.933       .  S
C1802      C1803   1.410       .  A
C1803     Br1804   1.924       .  S
C1808      C1809   1.410       .  A
C1808      C1813   1.406       .  A
C1808     Br1815   1.922       .  S
C1809      C1810   1.412       .  A
C1810      C1811   1.419       .  A
C1810     Br1817   1.933       .  S
C1811      C1812   1.428       .  A
C1811     Br1816   1.937       .  S
C1812      C1813   1.420       .  A
C1813     Br1814   1.928       .  S
C1818      C1819   1.413       .  A
C1818      C1823   1.407       .  A
C1818     Br1825   1.932       .  S
C1819      C1820   1.418       .  A
C1820      C1821   1.415       .  A
C1820     Br1827   1.938       .  S
C1821      C1822   1.425       .  A
C1821     Br1826   1.942       .  S
C1822      C1823   1.423       .  A
C1823     Br1824   1.932       .  S
N1828      N1829   1.318       .  A
N1828      N1834   1.315       .  A
N1828     Mn1857   2.207   1_655  S
N1829      C1836   1.354       .  A
N1830      N1832   1.316       .  A
N1830      N1831   1.321       .  A
N1831      C1837   1.356       .  A
N1832      N1833   1.322       .  A
N1833      C1837   1.354       .  A
N1834      N1835   1.324       .  A
N1835      C1836   1.355       .  A
C1836      C1933   1.512       .  S
C1837      C1909   1.513       .  S
N1838      N1844   1.316       .  A
N1838      N1839   1.323       .  A
N1839      C1847   1.354       .  A
N1840      N1841   1.317       .  A
N1840      N1842   1.315       .  A
N1840     Mn1846   2.196   1_655  S
N1841      C1848   1.352       .  A
N1842      N1843   1.320       .  A
N1843      C1848   1.353       .  A
N1844      N1845   1.318       .  A
N1845      C1847   1.355       .  A
C1847      C1897   1.511       .  S
C1848      C1945   1.499       .  S
N1849      N1850   1.325       .  A
N1849      N1855   1.315       .  A
N1850      C1858   1.358       .  A
N1851      N1853   1.315       .  A
N1851      N1852   1.323       .  A
N1852      C1859   1.355       .  A
N1853      N1854   1.320       .  A
N1854      C1859   1.354       .  A
N1855      N1856   1.317       .  A
N1855     Mn1869   2.197       .  S
N1856      C1858   1.353       .  A
C1858      C1873   1.516       .  S
C1859      C1921   1.512       .  S
N1860      N1861   1.318       .  A
N1860      N1866   1.316       .  A
N1861      C1871   1.354       .  A
N1862      N1863   1.317       .  A
N1862      N1864   1.314       .  A
N1863      C1872   1.354       .  A
N1864      N1865   1.321       .  A
N1864     Mn1868   2.194       .  S
N1865      C1872   1.355       .  A
N1866      N1867   1.323       .  A
N1867      C1871   1.355       .  A
C1871      C1957   1.509       .  S
C1872      C1885   1.508       .  S
C1873      C1874   1.531       .  S
C1873      C1879   1.540       .  S
C1873      C1877   1.541       .  S
C1874      H1881   1.086       .  S
C1874      C1875   1.353       .  D
C1875      C1876   1.552       .  S
C1875      C2063   1.486       .  S
C1876      C1880   1.549       .  S
C1876      C1878   1.546       .  S
C1876      H1882   1.103       .  S
C1877      H1883   1.087       .  S
C1877      C1878   1.373       .  D
C1878      C2070   1.507       .  S
C1879      H1884   1.083       .  S
C1879      C1880   1.375       .  D
C1880      C2083   1.516       .  S
C1885      C1886   1.540       .  S
C1885      C1891   1.523       .  S
C1885      C1889   1.544       .  S
C1886      H1893   1.086       .  S
C1886      C1887   1.365       .  D
C1887      C1888   1.538       .  S
C1887      C2080   1.506       .  S
C1888      C1892   1.552       .  S
C1888      C1890   1.546       .  S
C1888      H1894   1.088       .  S
C1889      H1895   1.087       .  S
C1889      C1890   1.382       .  D
C1890      C2050   1.523       .  S
C1891      H1896   1.088       .  S
C1891      C1892   1.349       .  D
C1892      C2040   1.475       .  S
C1897      C1898   1.538       .  S
C1897      C1903   1.543       .  S
C1897      C1901   1.525       .  S
C1898      H1905   1.087       .  S
C1898      C1899   1.358       .  D
C1899      C1900   1.536       .  S
C1899      C2043   1.498       .  S
C1900      C1904   1.561       .  S
C1900      C1902   1.562       .  S
C1900      H1906   1.097       .  S
C1901      H1907   1.087       .  S
C1901      C1902   1.362       .  D
C1902      C2033   1.488       .  S
C1903      H1908   1.084       .  S
C1903      C1904   1.378       .  D
C1904      C2020   1.532       .  S
C1909      C1910   1.542       .  S
C1909      C1915   1.531       .  S
C1909      C1913   1.536       .  S
C1910      H1917   1.084       .  S
C1910      C1911   1.371       .  D
C1911      C1912   1.555       .  S
C1911      C2023   1.515       .  S
C1912      C1916   1.548       .  S
C1912      C1914   1.559       .  S
C1912      H1918   1.108       .  S
C1913      H1919   1.085       .  S
C1913      C1914   1.373       .  D
C1914      C2010   1.517       .  S
C1915      H1920   1.087       .  S
C1915      C1916   1.356       .  D
C1916      C2060   1.483       .  S
C1921      C1922   1.537       .  S
C1921      C1927   1.534       .  S
C1921      C1925   1.543       .  S
C1922      H1929   1.084       .  S
C1922      C1923   1.375       .  D
C1923      C1924   1.555       .  S
C1923      C2073   1.517       .  S
C1924      C1928   1.545       .  S
C1924      C1926   1.540       .  S
C1924      H1930   1.104       .  S
C1925      H1931   1.084       .  S
C1925      C1926   1.369       .  D
C1926      C1990   1.502       .  S
C1927      H1932   1.087       .  S
C1927      C1928   1.357       .  D
C1928      C2000   1.485       .  S
C1933      C1934   1.545       .  S
C1933      C1939   1.536       .  S
C1933      C1937   1.532       .  S
C1934      H1941   1.086       .  S
C1934      C1935   1.378       .  D
C1935      C1936   1.550       .  S
C1935      C1993   1.525       .  S
C1936      C1940   1.540       .  S
C1936      C1938   1.561       .  S
C1936      H1942   1.092       .  S
C1937      H1943   1.085       .  S
C1937      C1938   1.365       .  D
C1938      C2013   1.502       .  S
C1939      H1944   1.086       .  S
C1939      C1940   1.355       .  D
C1940      C1980   1.494       .  S
C1945      C1946   1.534       .  S
C1945      C1951   1.537       .  S
C1945      C1949   1.528       .  S
C1946      H1953   1.084       .  S
C1946      C1947   1.370       .  D
C1947      C1948   1.555       .  S
C1947      C1983   1.507       .  S
C1948      C1952   1.544       .  S
C1948      C1950   1.553       .  S
C1948      H1954   1.102       .  S
C1949      H1955   1.089       .  S
C1949      C1950   1.361       .  D
C1950      C2030   1.490       .  S
C1951      H1956   1.087       .  S
C1951      C1952   1.360       .  D
C1952      C1970   1.502       .  S
C1957      C1958   1.541       .  S
C1957      C1963   1.530       .  S
C1957      C1961   1.540       .  S
C1958      H1965   1.086       .  S
C1958      C1959   1.375       .  D
C1959      C1960   1.549       .  S
C1959      C1973   1.512       .  S
C1960      C1964   1.548       .  S
C1960      C1962   1.542       .  S
C1960      H1966   1.102       .  S
C1961      H1967   1.086       .  S
C1961      C1962   1.369       .  D
C1962      C2053   1.501       .  S
C1963      H1968   1.087       .  S
C1963      C1964   1.353       .  D
C1964      C2003   1.485       .  S
C1969      C1970   1.416       .  A
C1969      C1974   1.415       .  A
C1969     Br1976   1.936       .  S
C1970      C1971   1.409       .  A
C1971      C1972   1.403       .  A
C1971     Br1978   1.922       .  S
C1972      C1973   1.421       .  A
C1972     Br1977   1.933       .  S
C1973      C1974   1.426       .  A
C1974     Br1975   1.941       .  S
C1979      C1980   1.416       .  A
C1979      C1984   1.414       .  A
C1979     Br1986   1.927       .  S
C1980      C1981   1.400       .  A
C1981      C1982   1.397       .  A
C1981     Br1988   1.922       .  S
C1982      C1983   1.412       .  A
C1982     Br1987   1.902       .  S
C1983      C1984   1.423       .  A
C1984     Br1985   1.939       .  S
C1989      C1990   1.416       .  A
C1989      C1994   1.417       .  A
C1989     Br1996   1.936       .  S
C1990      C1991   1.409       .  A
C1991      C1992   1.404       .  A
C1991     Br1998   1.930       .  S
C1992      C1993   1.422       .  A
C1992     Br1997   1.930       .  S
C1993      C1994   1.425       .  A
C1994     Br1995   1.934       .  S
C1999      C2000   1.409       .  A
C1999      C2004   1.407       .  A
C1999     Br2006   1.934       .  S
C2000      C2001   1.408       .  A
C2001      C2002   1.409       .  A
C2001     Br2008   1.921       .  S
C2002      C2003   1.414       .  A
C2002     Br2007   1.935       .  S
C2003      C2004   1.407       .  A
C2004     Br2005   1.921       .  S
C2009      C2010   1.418       .  A
C2009      C2014   1.404       .  A
C2009     Br2016   1.912       .  S
C2010      C2011   1.427       .  A
C2011      C2012   1.421       .  A
C2011     Br2018   1.934       .  S
C2012      C2013   1.412       .  A
C2012     Br2017   1.931       .  S
C2013      C2014   1.398       .  A
C2014     Br2015   1.929       .  S
C2019      C2020   1.419       .  A
C2019      C2024   1.410       .  A
C2019     Br2026   1.908       .  S
C2020      C2021   1.425       .  A
C2021      C2022   1.421       .  A
C2021     Br2028   1.931       .  S
C2022      C2023   1.418       .  A
C2022     Br2027   1.931       .  S
C2023      C2024   1.407       .  A
C2024     Br2025   1.922       .  S
C2029      C2030   1.414       .  A
C2029      C2034   1.412       .  A
C2029     Br2036   1.931       .  S
C2030      C2031   1.408       .  A
C2031      C2032   1.408       .  A
C2031     Br2038   1.921       .  S
C2032      C2033   1.407       .  A
C2032     Br2037   1.933       .  S
C2033      C2034   1.409       .  A
C2034     Br2035   1.929       .  S
C2039      C2040   1.397       .  A
C2039      C2044   1.400       .  A
C2039     Br2046   1.934       .  S
C2040      C2041   1.407       .  A
C2041      C2042   1.408       .  A
C2041     Br2048   1.935       .  S
C2042      C2043   1.420       .  A
C2042     Br2047   1.928       .  S
C2043      C2044   1.417       .  A
C2044     Br2045   1.906       .  S
C2049      C2050   1.427       .  A
C2049      C2054   1.421       .  A
C2049     Br2056   1.932       .  S
C2050      C2051   1.424       .  A
C2051      C2052   1.396       .  A
C2051     Br2058   1.935       .  S
C2052      C2053   1.402       .  A
C2052     Br2057   1.922       .  S
C2053      C2054   1.411       .  A
C2054     Br2055   1.927       .  S
C2059      C2060   1.411       .  A
C2059      C2064   1.410       .  A
C2059     Br2066   1.934       .  S
C2060      C2061   1.404       .  A
C2061      C2062   1.404       .  A
C2061     Br2068   1.919       .  S
C2062      C2063   1.413       .  A
C2062     Br2067   1.933       .  S
C2063      C2064   1.410       .  A
C2064     Br2065   1.924       .  S
C2069      C2070   1.410       .  A
C2069      C2074   1.406       .  A
C2069     Br2076   1.922       .  S
C2070      C2071   1.412       .  A
C2071      C2072   1.419       .  A
C2071     Br2078   1.933       .  S
C2072      C2073   1.428       .  A
C2072     Br2077   1.937       .  S
C2073      C2074   1.420       .  A
C2074     Br2075   1.928       .  S
C2079      C2080   1.413       .  A
C2079      C2084   1.407       .  A
C2079     Br2086   1.932       .  S
C2080      C2081   1.418       .  A
C2081      C2082   1.415       .  A
C2081     Br2088   1.938       .  S
C2082      C2083   1.425       .  A
C2082     Br2087   1.942       .  S
C2083      C2084   1.423       .  A
C2084     Br2085   1.932       .  S
