geometry optimzed in LAMMPS
_audit_creation_date              2020-11-30 
_audit_creation_method            'lammps2cif' 
_symmetry_space_group_name_H-M    'P1' 
_symmetry_Int_Tables_number       1 
_symmetry_cell_setting            triclinic 
loop_ 
_symmetry_equiv_pos_as_xyz 
  x,y,z 
_cell_length_a                    44.19052002234597 
_cell_length_b                    44.231741074311344 
_cell_length_c                    44.21311880058846 
_cell_angle_alpha                 89.77516816219278 
_cell_angle_beta                  90.04026938530177 
_cell_angle_gamma                 89.98453490018227 
loop_ 
_atom_site_label 
_atom_site_type_symbol 
_atom_site_fract_x 
_atom_site_fract_y 
_atom_site_fract_z 
_atom_site_charge 
C1          C  0.51447740  0.25434422  0.25312039    -0.00260
C2          C  0.48381461  0.25596886  0.25040447    -0.00260
C3          C  0.51403609  0.74994088  0.26138799    -0.00260
C4          C  0.48333169  0.75222936  0.26224375    -0.00260
C5          C  0.51540495  0.25738268  0.75943923    -0.00260
C6          C  0.48457664  0.25654706  0.75781836    -0.00260
C7          C  0.25097319  0.25179540  0.49179113    -0.00260
C8          C  0.25009357  0.25222624  0.52252970    -0.00260
C9          C  0.25045553  0.98579793  0.75871699    -0.00260
C10         C  0.24966211  0.01652682  0.75884984    -0.00260
Fe11       Fe  0.33119566  0.17462520  0.78137397     1.65780
Fe12       Fe  0.32637980  0.22663266  0.83649505     1.73250
Fe13       Fe  0.27521874  0.17079789  0.83353284     1.54420
O14         O  0.25862762  0.15871993  0.79124363    -0.82500
O15         O  0.33007433  0.20464085  0.87728326    -0.80800
O16         O  0.29144070  0.17735300  0.75783634    -0.85000
O17         O  0.32101905  0.12994344  0.79291819    -0.79860
O18         O  0.25102717  0.20990728  0.82899681    -0.81630
O19         O  0.37066425  0.21662898  0.82603933    -0.84380
C20         C  0.30715665  0.11619658  0.81426776     0.96390
C21         C  0.26535068  0.16778153  0.76477842     1.03830
O22         O  0.31131174  0.19032595  0.81739154    -1.13360
O23         O  0.32250687  0.25026758  0.79687451    -0.75790
O24         O  0.34130992  0.21709752  0.76398749    -0.79280
O25         O  0.29752344  0.13017106  0.83738026    -0.79970
C26         C  0.33211063  0.24343667  0.77077311     0.95290
O27         O  0.37341784  0.17289283  0.80182983    -0.77930
O28         O  0.28391007  0.24300004  0.84779782    -0.83120
C29         C  0.30664659  0.19630266  0.89156062     0.97910
C30         C  0.25763805  0.23603827  0.83855558     1.03830
O31         O  0.28510299  0.18253798  0.87826185    -0.78760
C32         C  0.38602521  0.19630467  0.81276681     1.02130
Fe33       Fe  0.16790004  0.32875381  0.78042655     1.65780
Fe34       Fe  0.16782363  0.27409050  0.83400056     1.73250
Fe35       Fe  0.22207154  0.32820748  0.83524802     1.54410
O36         O  0.24469816  0.32799882  0.79445945    -0.82500
O37         O  0.17870099  0.28530788  0.87776991    -0.80800
O38         O  0.20876128  0.33980496  0.76104592    -0.85000
O39         O  0.16528143  0.37106234  0.79983022    -0.79860
O40         O  0.24134572  0.28630322  0.84449408    -0.81630
O41         O  0.12610226  0.29438663  0.83759028    -0.84380
C42         C  0.18764358  0.38545322  0.81082044     0.96390
C43         C  0.23616016  0.33516789  0.76795624     1.03830
O44         O  0.18572824  0.31077665  0.81687803    -1.13360
O45         O  0.15655821  0.25532080  0.79290364    -0.75790
O46         O  0.17094130  0.28846701  0.75780181    -0.79280
O47         O  0.20854053  0.37241277  0.82595866    -0.79970
C48         C  0.16383537  0.26193600  0.76602024     0.95290
O49         O  0.12411398  0.31797959  0.79312890    -0.77930
O50         O  0.20775121  0.25137935  0.83048559    -0.83120
C51         C  0.19250891  0.30580979  0.89213737     0.97910
C52         C  0.23419525  0.25921073  0.83813178     1.03830
O53         O  0.20351198  0.32882239  0.87857382    -0.78760
C54         C  0.11142101  0.30383949  0.81476284     1.02130
Fe55       Fe  0.32830833  0.27833491  0.67831763     1.65780
Fe56       Fe  0.27349630  0.33255537  0.67681097     1.73250
Fe57       Fe  0.32688287  0.33307843  0.73167016     1.54420
O58         O  0.32405652  0.29323629  0.75488970    -0.82500
O59         O  0.28563262  0.37667879  0.68722842    -0.80800
O60         O  0.33782118  0.25939699  0.72028922    -0.85000
O61         O  0.37148819  0.29688705  0.67689199    -0.79860
O62         O  0.28556043  0.34367434  0.75058523    -0.81630
O63         O  0.29348520  0.33467172  0.63447942    -0.84380
C64         C  0.38507680  0.30904134  0.69916775     0.96390
C65         C  0.33163848  0.26673939  0.74733922     1.03830
O66         O  0.30988177  0.31489229  0.69521228    -1.13360
O67         O  0.25421331  0.29153529  0.66608280    -0.75790
O68         O  0.28749060  0.25594855  0.67927137    -0.79280
O69         O  0.37077679  0.32286693  0.71979466    -0.79970
C70         C  0.26106331  0.26428463  0.67163858     0.95290
O71         O  0.31918388  0.29119602  0.63407190    -0.77930
O72         O  0.25053096  0.32986259  0.71715106    -0.83120
C73         C  0.30703172  0.38948253  0.70151106     0.97910
C74         C  0.25862488  0.33666909  0.74379593     1.03830
O75         O  0.32984503  0.37483314  0.71116457    -0.78760
C76         C  0.30490761  0.31223439  0.62046065     1.02130
Fe77       Fe  0.22627162  0.17326041  0.67490058     1.65780
Fe78       Fe  0.17280646  0.17066596  0.72986004     1.73250
Fe79       Fe  0.17020347  0.22546478  0.67546541     1.54410
O80         O  0.21026238  0.24926484  0.67702603    -0.82500
O81         O  0.12836697  0.17890461  0.71725945    -0.80800
O82         O  0.24451025  0.21469931  0.66426220    -0.85000
O83         O  0.20629168  0.17004642  0.63287012    -0.79860
O84         O  0.15997103  0.24463799  0.71643087    -0.81630
O85         O  0.17240244  0.12761458  0.71110074    -0.84380
C86         C  0.19430003  0.19186867  0.61838602     0.96390
C87         C  0.23712376  0.24157877  0.67050074     1.03830
O88         O  0.18939350  0.18951050  0.69317569    -1.13360
O89         O  0.21487831  0.16182948  0.74883775    -0.75790
O90         O  0.24935430  0.17613643  0.71491871    -0.79280
O91         O  0.17978217  0.21282185  0.63154312    -0.79970
C92         C  0.24189613  0.16822796  0.74144495     0.95290
O93         O  0.21523041  0.12935374  0.68499653    -0.77930
O94         O  0.17277851  0.21141477  0.75232273    -0.83120
C95         C  0.11422996  0.19308668  0.69652952     0.97910
C96         C  0.16517879  0.23778522  0.74374676     1.03830
O97         O  0.12791213  0.20517374  0.67415127    -0.78760
C98         C  0.19511514  0.11458175  0.69906207     1.02130
C99         C  0.98434039  0.24824957  0.75368450    -0.00260
C100        C  0.01505117  0.24994524  0.75214584    -0.00260
C101        C  0.25194850  0.48538800  0.76562746    -0.00260
C102        C  0.25269058  0.51624741  0.76406400    -0.00260
C103        C  0.75158907  0.51510079  0.26042061    -0.00260
C104        C  0.75271965  0.48441375  0.26299410    -0.00260
C105        C  0.74889234  0.25114394  0.99234994    -0.00260
C106        C  0.74915657  0.25049021  0.02317436    -0.00260
Fe107      Fe  0.83049423  0.27609364  0.18105585     1.65780
Fe108      Fe  0.77426291  0.32820402  0.17893880     1.73250
Fe109      Fe  0.82766387  0.33154458  0.23321972     1.54420
O110        O  0.82419622  0.29201305  0.25705433    -0.82500
O111        O  0.78525688  0.37284095  0.18881625    -0.80800
O112        O  0.84131763  0.25866831  0.22345081    -0.85000
O113        O  0.87228119  0.29711200  0.17827470    -0.79860
O114        O  0.78629135  0.34303162  0.25130611    -0.81630
O115        O  0.79460914  0.33090447  0.13704850    -0.84380
C116        C  0.88603180  0.30767304  0.20123948     0.96390
C117        C  0.83272538  0.26562578  0.24997038     1.03830
O118        O  0.81102210  0.31216770  0.19739626    -1.13360
O119        O  0.75699239  0.28586096  0.16827769    -0.75790
O120        O  0.79100565  0.25195282  0.18378279    -0.79280
O121        O  0.87179112  0.32083763  0.22230821    -0.79970
C122        C  0.76461864  0.25894928  0.17497185     0.95290
O123        O  0.81966867  0.28729003  0.13649176    -0.77930
O124        O  0.75145421  0.32547542  0.21944909    -0.83120
C125        C  0.80704573  0.38662970  0.20158238     0.97910
C126        C  0.75954286  0.33474274  0.24537001     1.03830
O127        O  0.83036336  0.37265616  0.21121610    -0.78760
C128        C  0.80484920  0.30808972  0.12297163     1.02130
Fe129      Fe  0.77369172  0.17041987  0.33776679     1.65780
Fe130      Fe  0.82845911  0.17294381  0.28426459     1.73250
Fe131      Fe  0.82599840  0.22589850  0.33915229     1.54420
O132        O  0.78386624  0.24332882  0.35048554    -0.82500
O133        O  0.87110482  0.17128634  0.30401718    -0.80800
O134        O  0.75014347  0.20996168  0.33381172    -0.85000
O135        O  0.78530599  0.18147352  0.38181729    -0.79860
O136        O  0.82251596  0.24929863  0.29936177    -0.81630
O137        O  0.81841539  0.12842487  0.29639587    -0.84380
C138        C  0.80673498  0.19529246  0.39514357     0.96390
C139        C  0.75731358  0.23637972  0.34199940     1.03830
O140        O  0.80977719  0.18937580  0.32064765    -1.13360
O141        O  0.78785302  0.17487952  0.26143865    -0.75790
O142        O  0.75529701  0.15899986  0.29655845    -0.79280
O143        O  0.82959836  0.20500094  0.38071954    -0.79970
C144        C  0.76165683  0.16637108  0.26961987     0.95290
O145        O  0.79463097  0.12890989  0.34080561    -0.77930
O146        O  0.83872737  0.21516687  0.26609940    -0.83120
C147        C  0.88470524  0.19442391  0.31454681     0.97910
C148        C  0.83159753  0.24206850  0.27319999     1.03830
O149        O  0.87034692  0.21520000  0.32818769    -0.78760
C150        C  0.80423785  0.11492197  0.31765267     1.02130
Fe151      Fe  0.72314334  0.32883514  0.33662428     1.65780
Fe152      Fe  0.66939614  0.33128716  0.28208807     1.73250
Fe153      Fe  0.66810960  0.27574607  0.33435339     1.54420
O154        O  0.70802618  0.25262939  0.33135151    -0.82500
O155        O  0.62539320  0.32010658  0.29369184    -0.80800
O156        O  0.74126802  0.28682316  0.34751094    -0.85000
O157        O  0.70343356  0.33103552  0.37906651    -0.79860
O158        O  0.65721199  0.25819605  0.29231912    -0.81630
O159        O  0.66629778  0.37249025  0.30347123    -0.84380
C160        C  0.69202575  0.30828503  0.39266009     0.96390
C161        C  0.73415465  0.25990808  0.34055977     1.03830
O162        O  0.68659304  0.31229967  0.31808529    -1.13360
O163        O  0.71062429  0.34287880  0.26365633    -0.75790
O164        O  0.74571980  0.32640814  0.29598601    -0.79280
O165        O  0.67866934  0.28728995  0.37834470    -0.79970
C166        C  0.73745718  0.33494948  0.26980213     0.95290
O167        O  0.71116451  0.37319075  0.32644545    -0.77930
O168        O  0.67326317  0.29188578  0.25839685    -0.83120
C169        C  0.61191046  0.30615258  0.31497799     0.97910
C170        C  0.66542079  0.26533602  0.26571393     1.03830
O171        O  0.62615843  0.29580553  0.33768726    -0.78760
C172        C  0.68943997  0.38661137  0.31301757     1.02130
Fe173      Fe  0.67042365  0.17264929  0.23302514     1.65780
Fe174      Fe  0.67277815  0.22492271  0.17705427     1.73250
Fe175      Fe  0.72489285  0.16910952  0.17924436     1.54410
O176        O  0.74354962  0.15825306  0.22061147    -0.82500
O177        O  0.66922766  0.20397500  0.13571888    -0.80800
O178        O  0.71117215  0.17483560  0.25546294    -0.85000
O179        O  0.67991630  0.12814323  0.22179168    -0.79860
O180        O  0.74879456  0.20872140  0.18201260    -0.81630
O181        O  0.62855429  0.21390717  0.18775899    -0.84380
C182        C  0.69301966  0.11387263  0.20057153     0.96390
C183        C  0.73732724  0.16617780  0.24737670     1.03830
O184        O  0.68897623  0.18853223  0.19616954    -1.13360
O185        O  0.67590010  0.24878503  0.21649786    -0.75790
O186        O  0.66019800  0.21486142  0.25041139    -0.79280
O187        O  0.70369672  0.12743072  0.17741638    -0.79970
C188        C  0.66691615  0.24172968  0.24279291     0.95290
O189        O  0.62773566  0.17073784  0.21366445    -0.77930
O190        O  0.71490360  0.24230436  0.16573937    -0.83120
C191        C  0.69184564  0.19368041  0.12144331     0.97910
C192        C  0.74156711  0.23523060  0.17382960     1.03830
O193        O  0.71306977  0.17958946  0.13496248    -0.78760
C194        C  0.61421548  0.19345271  0.20214878     1.02130
C195        C  0.75287016  0.01586376  0.25577420    -0.00260
C196        C  0.75094568  0.98512777  0.25679839    -0.00260
C197        C  0.75100364  0.25563265  0.49214119    -0.00260
C198        C  0.75037045  0.25508789  0.52287220    -0.00260
C199        C  0.75005109  0.75315174  0.99373946    -0.00260
C200        C  0.75084332  0.75403262  0.02447575    -0.00260
Fe201      Fe  0.77288188  0.66956421  0.18003969     1.65780
Fe202      Fe  0.82646931  0.72432658  0.18053968     1.73250
Fe203      Fe  0.82708798  0.66931437  0.23404488     1.54410
O204        O  0.78666695  0.67201903  0.25654478    -0.82500
O205        O  0.87051597  0.71164850  0.19085011    -0.80800
O206        O  0.75352519  0.65835868  0.22112760    -0.85000
O207        O  0.79275391  0.62745628  0.17669279    -0.79860
O208        O  0.83814123  0.70994108  0.25380421    -0.81630
O209        O  0.82923555  0.70574275  0.13787758    -0.84380
C210        C  0.80295326  0.61280541  0.19926543     0.96390
C211        C  0.76009220  0.66530819  0.24813928     1.03830
O212        O  0.80915478  0.68747645  0.19788957    -1.13360
O213        O  0.78468933  0.74323656  0.16991968    -0.75790
O214        O  0.74986637  0.70936572  0.18339130    -0.79280
O215        O  0.81656482  0.62582548  0.22094119    -0.79970
C216        C  0.75755945  0.73592217  0.17604361     0.95290
O217        O  0.78552660  0.68101579  0.13638014    -0.77930
O218        O  0.82426808  0.74610450  0.22137673    -0.83120
C219        C  0.88369120  0.69001402  0.20465919     0.97910
C220        C  0.83223862  0.73725232  0.24752169     1.03830
O221        O  0.86933059  0.66698806  0.21426399    -0.78760
C222        C  0.80667890  0.69557768  0.12329507     1.02130
Fe223      Fe  0.77490914  0.82910269  0.33659142     1.65780
Fe224      Fe  0.82867771  0.77392402  0.33866616     1.73250
Fe225      Fe  0.83147780  0.82748848  0.28409834     1.54420
O226        O  0.79176450  0.82669769  0.26007402    -0.82500
O227        O  0.87275966  0.78550647  0.32942490    -0.80800
O228        O  0.75664689  0.83802084  0.29440035    -0.85000
O229        O  0.79297392  0.87260748  0.33722984    -0.79860
O230        O  0.84062480  0.78623950  0.26495047    -0.81630
O231        O  0.83046309  0.79409588  0.38064470    -0.84380
C232        C  0.80680009  0.88573233  0.31557198     0.96390
C233        C  0.76485430  0.83327879  0.26731303     1.03830
O234        O  0.81188408  0.81055845  0.32012566    -1.13360
O235        O  0.78756894  0.75493756  0.34883974    -0.75790
O236        O  0.75206675  0.78835166  0.33614968    -0.79280
O237        O  0.82283353  0.87110233  0.29681672    -0.79970
C238        C  0.76034430  0.76186373  0.34357851     0.95290
O239        O  0.78726142  0.82026334  0.38119747    -0.77930
O240        O  0.82661604  0.75107790  0.29836178    -0.83120
C241        C  0.88721455  0.80622820  0.31587025     0.97910
C242        C  0.83358461  0.75934105  0.27177023     1.03830
O243        O  0.87381136  0.82881334  0.30408729    -0.78760
C244        C  0.80777758  0.80495939  0.39459097     1.02130
Fe245      Fe  0.66816749  0.77579693  0.18271778     1.65780
Fe246      Fe  0.67293219  0.83179878  0.23415410     1.73250
Fe247      Fe  0.72417331  0.82801578  0.17773794     1.54420
O248        O  0.74119731  0.78573399  0.16714886    -0.82500
O249        O  0.67027185  0.87347362  0.21309467    -0.80800
O250        O  0.70806919  0.75239483  0.18541381    -0.85000
O251        O  0.67770705  0.78643427  0.13809232    -0.79860
O252        O  0.74857532  0.82521067  0.21726264    -0.81630
O253        O  0.62855866  0.82196236  0.22358154    -0.84380
C254        C  0.69110028  0.80710963  0.12320519     0.96390
C255        C  0.73421948  0.75928557  0.17588044     1.03830
O256        O  0.68799170  0.81229296  0.19777201    -1.13360
O257        O  0.67571637  0.79199845  0.25823956    -0.75790
O258        O  0.65783269  0.75877940  0.22502001    -0.79280
O259        O  0.70255749  0.83010434  0.13621282    -0.79970
C260        C  0.66611939  0.76584558  0.25150662     0.95290
O261        O  0.62599408  0.79605144  0.18076375    -0.77930
O262        O  0.71527112  0.84235587  0.25085229    -0.83120
C263        C  0.69287209  0.88708556  0.20152739     0.97910
C264        C  0.74174460  0.83400536  0.24365165     1.03830
O265        O  0.71364488  0.87283946  0.18760441    -0.78760
C266        C  0.61334749  0.80762573  0.20381790     1.02130
Fe267      Fe  0.66912430  0.67296698  0.28480178     1.65780
Fe268      Fe  0.72345257  0.67084010  0.33899323     1.73250
Fe269      Fe  0.66980438  0.72516123  0.34073687     1.54410
O270        O  0.67312435  0.74946737  0.30149949    -0.82500
O271        O  0.71128045  0.68031895  0.38317443    -0.80800
O272        O  0.65898932  0.71545514  0.26718084    -0.85000
O273        O  0.62643432  0.67028011  0.30406674    -0.79860
O274        O  0.71107324  0.74391205  0.35219409    -0.81630
O275        O  0.70302459  0.62890604  0.34062901    -0.84380
C276        C  0.61221324  0.69234886  0.31584577     0.96390
C277        C  0.66571933  0.74233529  0.27482437     1.03830
O278        O  0.68723270  0.68937764  0.32165417    -1.13360
O279        O  0.74246759  0.66064057  0.29770675    -0.75790
O280        O  0.70969492  0.67501261  0.26208209    -0.79280
O281        O  0.62585452  0.71338135  0.32978580    -0.79970
C282        C  0.73587979  0.66666645  0.27046362     0.95290
O283        O  0.67938494  0.62836942  0.29615937    -0.77930
O284        O  0.74620879  0.71126015  0.33684653    -0.83120
C285        C  0.68935502  0.69326988  0.39640354     0.97910
C286        C  0.73797027  0.73760796  0.34455436     1.03830
O287        O  0.66659141  0.70330517  0.38188845    -0.78760
C288        C  0.69397439  0.61498139  0.31718219     1.02130
C289        C  0.74352547  0.75494737  0.49302843    -0.00260
C290        C  0.74522571  0.75254368  0.52370510    -0.00260
C291        C  0.74515687  0.98584969  0.75344161    -0.00260
C292        C  0.74415969  0.01665196  0.75292032    -0.00260
Fe293      Fe  0.66806689  0.17485055  0.78163614     1.65780
Fe294      Fe  0.72419930  0.17174703  0.83361413     1.73250
Fe295      Fe  0.67108504  0.22621618  0.83849860     1.54420
O296        O  0.67339282  0.25048866  0.79895614    -0.82500
O297        O  0.71379333  0.18105589  0.87794188    -0.80800
O298        O  0.65748597  0.21732531  0.76462841    -0.85000
O299        O  0.62610251  0.17202548  0.80202718    -0.79860
O300        O  0.71280845  0.24428578  0.84872963    -0.81630
O301        O  0.70330498  0.13018669  0.83617084    -0.84380
C302        C  0.61253111  0.19450722  0.81361957     0.96390
C303        C  0.66547144  0.24380260  0.77226213     1.03830
O304        O  0.68740127  0.19058799  0.81825151    -1.13360
O305        O  0.74125225  0.16125236  0.79142379    -0.75790
O306        O  0.70768103  0.17793626  0.75775250    -0.79280
O307        O  0.62675505  0.21459704  0.82854995    -0.79970
C308        C  0.73394196  0.16881753  0.76472592     0.95290
O309        O  0.67848581  0.13002973  0.79234754    -0.77930
O310        O  0.74741870  0.21201639  0.83133166    -0.83120
C311        C  0.69318943  0.19375007  0.89325775     0.97910
C312        C  0.73957595  0.23795877  0.84071687     1.03830
O313        O  0.66981536  0.20510612  0.88061305    -0.78760
C314        C  0.69297338  0.11633371  0.81326528     1.02130
Fe315      Fe  0.83013185  0.27443757  0.83831457     1.65780
Fe316      Fe  0.83132595  0.32789713  0.78355623     1.73250
Fe317      Fe  0.77630039  0.32876025  0.83638607     1.54410
O318        O  0.75378126  0.28836416  0.83289652    -0.82500
O319        O  0.82029818  0.37211710  0.79553196    -0.80800
O320        O  0.78869688  0.25584256  0.84943069    -0.85000
O321        O  0.83293178  0.29502035  0.88009110    -0.79860
O322        O  0.75838815  0.34058685  0.79458361    -0.81630
O323        O  0.87279371  0.33088655  0.80447516    -0.84380
C324        C  0.80969976  0.30450360  0.89414374     0.96390
C325        C  0.76191793  0.26212233  0.84125707     1.03830
O326        O  0.81284438  0.31068130  0.81969414    -1.13360
O327        O  0.84240984  0.28591677  0.76532249    -0.75790
O328        O  0.82658676  0.25135077  0.79851300    -0.79280
O329        O  0.78801459  0.31772759  0.88048840    -0.79970
C330        C  0.83463139  0.25904069  0.77210906     0.95290
O331        O  0.87434808  0.28601305  0.82707904    -0.77930
O332        O  0.79164077  0.32508279  0.76011200    -0.83120
C333        C  0.80627144  0.38528408  0.81697541     0.97910
C334        C  0.76550098  0.33407368  0.76756631     1.03830
O335        O  0.79628827  0.37075063  0.83972817    -0.78760
C336        C  0.88722682  0.30750662  0.81284274     1.02130
Fe337      Fe  0.77436254  0.17389361  0.67546182     1.65780
Fe338      Fe  0.82920152  0.22668579  0.67938857     1.73250
Fe339      Fe  0.82637162  0.17003673  0.73138578     1.54420
O340        O  0.78394240  0.16050942  0.74893400    -0.82500
O341        O  0.87106661  0.20619760  0.67647817    -0.80800
O342        O  0.75023124  0.17643829  0.71483526    -0.85000
O343        O  0.78549451  0.12987081  0.68523000    -0.79860
O344        O  0.82478323  0.20976516  0.75516564    -0.81630
O345        O  0.81889898  0.21630308  0.63482710    -0.84380
C346        C  0.80541460  0.11473715  0.69943688     0.96390
C347        C  0.75726413  0.16820411  0.74138819     1.03830
O348        O  0.81037758  0.18986018  0.69516920    -1.13360
O349        O  0.78888752  0.24973879  0.68252382    -0.75790
O350        O  0.75644183  0.21555598  0.66480034    -0.79280
O351        O  0.82799213  0.12755111  0.71173951    -0.79970
C352        C  0.76273650  0.24203384  0.67350911     0.95290
O353        O  0.79608427  0.17162905  0.63437013    -0.77930
O354        O  0.84048022  0.24381658  0.72148902    -0.83120
C355        C  0.88489384  0.19365597  0.69842817     0.97910
C356        C  0.83364622  0.23614540  0.74829332     1.03830
O357        O  0.87080083  0.17925007  0.71915199    -0.78760
C358        C  0.80561857  0.19505491  0.62074942     1.02130
Fe359      Fe  0.67188686  0.27877285  0.68009232     1.65780
Fe360      Fe  0.67352882  0.33367156  0.73337156     1.73250
Fe361      Fe  0.72619010  0.33227559  0.67791428     1.54420
O362        O  0.74464661  0.29115385  0.66631675    -0.82500
O363        O  0.67121115  0.37625764  0.71395003    -0.80800
O364        O  0.71241247  0.25606352  0.68284287    -0.85000
O365        O  0.68243550  0.29080283  0.63588724    -0.79860
O366        O  0.74959162  0.32832505  0.71752314    -0.81630
O367        O  0.62923003  0.32360330  0.72112899    -0.84380
C368        C  0.69578492  0.31244943  0.62228161     0.96390
C369        C  0.73848371  0.26427138  0.67401796     1.03830
O370        O  0.69011608  0.31524929  0.69683214    -1.13360
O371        O  0.67572449  0.29350423  0.75653055    -0.75790
O372        O  0.66058206  0.26040085  0.72186370    -0.79280
O373        O  0.70520260  0.33557730  0.63639255    -0.79970
C374        C  0.66692601  0.26735558  0.74897044     0.95290
O375        O  0.62977508  0.29878463  0.67738887    -0.77930
O376        O  0.71566207  0.34365430  0.75147517    -0.83120
C377        C  0.69402828  0.39005254  0.70317028     0.97910
C378        C  0.74231349  0.33578285  0.74415221     1.03830
O379        O  0.71469361  0.37606476  0.68893806    -0.78760
C380        C  0.61565947  0.30935775  0.70006269     1.02130
C381        C  0.75478701  0.48662589  0.75932622    -0.00260
C382        C  0.75495340  0.51740359  0.75839694    -0.00260
Fe383      Fe  0.77625107  0.67235560  0.83989226     1.65780
Fe384      Fe  0.83031271  0.67293846  0.78483573     1.73250
Fe385      Fe  0.82939320  0.72801103  0.83807975     1.54420
O386        O  0.78825687  0.74952787  0.83713444    -0.82500
O387        O  0.87427021  0.68424391  0.79668457    -0.80800
O388        O  0.75531336  0.71305516  0.84846562    -0.85000
O389        O  0.79515183  0.67249635  0.88298226    -0.79860
O390        O  0.83786531  0.74729630  0.79656778    -0.81630
O391        O  0.83338602  0.63080394  0.80508394    -0.84380
C392        C  0.80713473  0.69494528  0.89642852     0.96390
C393        C  0.76176980  0.74050931  0.84344015     1.03830
O394        O  0.81220624  0.69086466  0.82120061    -1.13360
O395        O  0.78924585  0.66173617  0.76560700    -0.75790
O396        O  0.75335722  0.67217144  0.79936221    -0.79280
O397        O  0.82140286  0.71536952  0.88209743    -0.79970
C398        C  0.76180443  0.66606721  0.77267946     0.95290
O399        O  0.79041990  0.62849643  0.83140017    -0.77930
O400        O  0.82770964  0.71291203  0.76126347    -0.83120
C401        C  0.88693366  0.70033068  0.81683362     0.97910
C402        C  0.83335407  0.73978218  0.76934309     1.03830
O403        O  0.87249787  0.71014773  0.83958610    -0.78760
C404        C  0.81147525  0.61587745  0.81645488     1.02130
Fe405      Fe  0.82749567  0.77636567  0.67843330     1.65780
Fe406      Fe  0.77298677  0.83024410  0.67931304     1.73250
Fe407      Fe  0.82792837  0.83059670  0.73267302     1.54420
O408        O  0.82629800  0.79011446  0.75501088    -0.82500
O409        O  0.78580395  0.87395771  0.68912690    -0.80800
O410        O  0.83885487  0.75688552  0.71939839    -0.85000
O411        O  0.86965557  0.79602584  0.67498859    -0.79860
O412        O  0.78691280  0.84050933  0.75295963    -0.81630
O413        O  0.79211419  0.83294106  0.63686223    -0.84380
C414        C  0.88440768  0.80654102  0.69725433     0.96390
C415        C  0.83315422  0.76365482  0.74662297     1.03830
O416        O  0.80972929  0.81268866  0.69656390    -1.13360
O417        O  0.75355421  0.78892385  0.66939021    -0.75790
O418        O  0.78742854  0.75357095  0.68159672    -0.79280
O419        O  0.87156357  0.82063471  0.71878529    -0.79970
C420        C  0.76073038  0.76174488  0.67516267     0.95290
O421        O  0.81619365  0.78889686  0.63476028    -0.77930
O422        O  0.75090657  0.82804128  0.71994617    -0.83120
C423        C  0.80698712  0.88753500  0.70302375     0.97910
C424        C  0.75954880  0.83485396  0.74638430     1.03830
O425        O  0.82967917  0.87343507  0.71375561    -0.78760
C426        C  0.80158437  0.81024556  0.62214290     1.02130
Fe427      Fe  0.66855136  0.82897713  0.78340186     1.65780
Fe428      Fe  0.66941815  0.77510915  0.83833172     1.73250
Fe429      Fe  0.72310299  0.83063454  0.83803370     1.54410
O430        O  0.74571251  0.83002507  0.79744495    -0.82500
O431        O  0.67750872  0.78922356  0.88184184    -0.80800
O432        O  0.70953047  0.83826182  0.76326176    -0.85000
O433        O  0.66671405  0.87171793  0.80188377    -0.79860
O434        O  0.74393090  0.79010019  0.84748260    -0.81630
O435        O  0.62588457  0.79251786  0.83913341    -0.84380
C436        C  0.68890681  0.88668297  0.81226173     0.96390
C437        C  0.73704800  0.83484753  0.77053339     1.03830
O438        O  0.68675713  0.81183079  0.82018999    -1.13360
O439        O  0.66101334  0.75439294  0.79762053    -0.75790
O440        O  0.66957648  0.78824000  0.76119504    -0.79280
O441        O  0.70939316  0.87441000  0.82837978    -0.79970
C442        C  0.66468002  0.76141356  0.77009436     0.95290
O443        O  0.62481073  0.82004597  0.79684660    -0.77930
O444        O  0.71058770  0.75353936  0.83809601    -0.83120
C445        C  0.69235194  0.80967177  0.89545845     0.97910
C446        C  0.73725614  0.76259066  0.84345005     1.03830
O447        O  0.70474812  0.83152411  0.88128497    -0.78760
C448        C  0.61153559  0.80518686  0.81755088     1.02130
Fe449      Fe  0.72547168  0.67017118  0.68100045     1.65780
Fe450      Fe  0.67062843  0.66984348  0.73506814     1.73250
Fe451      Fe  0.67023664  0.72353339  0.67975568     1.54410
O452        O  0.71016116  0.74703956  0.68130095    -0.82500
O453        O  0.62648444  0.67887426  0.72171282    -0.80800
O454        O  0.74466441  0.71158267  0.67151940    -0.85000
O455        O  0.70745569  0.66814437  0.63777272    -0.79860
O456        O  0.65947393  0.74355988  0.72047152    -0.81630
O457        O  0.66951579  0.62677111  0.71690538    -0.84380
C458        C  0.69600862  0.69017920  0.62317741     0.96390
C459        C  0.73703951  0.73888889  0.67560132     1.03830
O460        O  0.68856484  0.68755203  0.69834475    -1.13360
O461        O  0.71175758  0.66075638  0.75549246    -0.75790
O462        O  0.74762854  0.67168287  0.72181921    -0.79280
O463        O  0.68061412  0.71061847  0.63616752    -0.79970
C464        C  0.73914000  0.66568203  0.74854827     0.95290
O465        O  0.71244592  0.62634938  0.69037875    -0.77930
O466        O  0.67166256  0.71068377  0.75679861    -0.83120
C467        C  0.61363044  0.69290185  0.70008199     0.97910
C468        C  0.66488973  0.73709387  0.74788791     1.03830
O469        O  0.62831630  0.70313536  0.67751916    -0.78760
C470        C  0.69162869  0.61278186  0.70487201     1.02130
C471        C  0.51560502  0.75278245  0.75543691    -0.00260
C472        C  0.48487336  0.75288594  0.75426764    -0.00260
Fe473      Fe  0.16743199  0.72840568  0.83380703     1.65780
Fe474      Fe  0.17242575  0.67304741  0.78121167     1.73250
Fe475      Fe  0.22349345  0.67628807  0.83840945     1.54420
O476        O  0.24124557  0.71823164  0.84816834    -0.82500
O477        O  0.17020977  0.63046277  0.80074522    -0.80800
O478        O  0.20746655  0.75209757  0.83220983    -0.85000
O479        O  0.17593246  0.71679400  0.87817555    -0.79860
O480        O  0.24795082  0.67768600  0.79890079    -0.81630
O481        O  0.12816293  0.68230011  0.79177501    -0.84380
C482        C  0.19055892  0.69710163  0.89330986     0.96390
C483        C  0.23402016  0.74486240  0.84033494     1.03830
O484        O  0.18735016  0.69210356  0.81823683    -1.13360
O485        O  0.17491135  0.71349707  0.75805155    -0.75790
O486        O  0.15833960  0.74664933  0.79206163    -0.79280
O487        O  0.20313921  0.67469477  0.88055020    -0.79970
C488        C  0.16651899  0.73986307  0.76555832     0.95290
O489        O  0.12499820  0.70818701  0.83456013    -0.77930
O490        O  0.21451806  0.66265795  0.76443078    -0.83120
C491        C  0.19225002  0.61741299  0.81394107     0.97910
C492        C  0.24126043  0.66892260  0.77247213     1.03830
O493        O  0.21164355  0.63220586  0.82923476    -0.78760
C494        C  0.11266520  0.69600199  0.81155668     1.02130
Fe495      Fe  0.22774595  0.82843438  0.67461489     1.65780
Fe496      Fe  0.17090198  0.77675230  0.67502346     1.73250
Fe497      Fe  0.17496542  0.83067523  0.72912639     1.54410
O498        O  0.21691587  0.84086573  0.74748911    -0.82500
O499        O  0.12858940  0.79739540  0.67299547    -0.80800
O500        O  0.25119518  0.82461540  0.71446947    -0.85000
O501        O  0.21721220  0.87287166  0.68556237    -0.79860
O502        O  0.17665323  0.78987584  0.75137943    -0.81630
O503        O  0.18227423  0.78894967  0.63076383    -0.84380
C504        C  0.19616942  0.88684236  0.69938154     0.96390
C505        C  0.24385425  0.83380208  0.74056678     1.03830
O506        O  0.19083734  0.81229204  0.69260134    -1.13360
O507        O  0.21028484  0.75266057  0.67846576    -0.75790
O508        O  0.24481217  0.78612206  0.66342618    -0.79280
O509        O  0.17308648  0.87300337  0.70946214    -0.79970
C510        C  0.23714443  0.75956483  0.67136794     0.95290
O511        O  0.20681870  0.83269425  0.63329691    -0.77930
O512        O  0.15966392  0.75796155  0.71625877    -0.83120
C513        C  0.11578545  0.80872386  0.69617412     0.97910
C514        C  0.16743981  0.76398989  0.74314847     1.03830
O515        O  0.13103598  0.82159576  0.71686509    -0.78760
C516        C  0.19732392  0.81021854  0.61832395     1.02130
Fe517      Fe  0.32738426  0.77617997  0.83631790     1.65780
Fe518      Fe  0.33277087  0.82916362  0.78177591     1.73250
Fe519      Fe  0.27618438  0.83304246  0.83317015     1.54410
O520        O  0.25136741  0.79406935  0.83015515    -0.82500
O521        O  0.32268489  0.87342531  0.79277574    -0.80800
O522        O  0.28458272  0.75984215  0.84657753    -0.85000
O523        O  0.32982835  0.79677248  0.87807605    -0.79860
O524        O  0.25981273  0.84399603  0.79037529    -0.81630
O525        O  0.37396732  0.83100887  0.80383938    -0.84380
C526        C  0.30698732  0.80746857  0.89186812     0.96390
C527        C  0.25788215  0.76771857  0.83934554     1.03830
O528        O  0.31237889  0.81305079  0.81744465    -1.13360
O529        O  0.34359275  0.78751505  0.76398452    -0.75790
O530        O  0.32493382  0.75318183  0.79592643    -0.79280
O531        O  0.28637730  0.82225547  0.87804445    -0.79970
C532        C  0.33475599  0.76094877  0.77004319     0.95290
O533        O  0.37226052  0.78631968  0.82694871    -0.77930
O534        O  0.29357149  0.82635768  0.75741181    -0.83120
C535        C  0.30933021  0.88785421  0.81366099     0.97910
C536        C  0.26712558  0.83508927  0.76404559     1.03830
O537        O  0.29777481  0.87434481  0.83631468    -0.78760
C538        C  0.38707161  0.80755303  0.81435087     1.02130
Fe539      Fe  0.27576854  0.66980432  0.68076192     1.65780
Fe540      Fe  0.32924043  0.72446662  0.67894165     1.73250
Fe541      Fe  0.33110869  0.67063500  0.73359770     1.54410
O542        O  0.29164296  0.67457619  0.75717333    -0.82500
O543        O  0.37342007  0.71223581  0.68946062    -0.80800
O544        O  0.25782354  0.65965024  0.72293183    -0.85000
O545        O  0.29541274  0.62750725  0.67830002    -0.79860
O546        O  0.34266547  0.71187108  0.75202076    -0.81630
O547        O  0.33152861  0.70469829  0.63668064    -0.84380
C548        C  0.30547680  0.61318617  0.70114448     0.96390
C549        C  0.26502232  0.66729114  0.74967527     1.03830
O550        O  0.31233737  0.68800133  0.69737848    -1.13360
O551        O  0.28761201  0.74303972  0.66756258    -0.75790
O552        O  0.25271093  0.71001373  0.68275482    -0.79280
O553        O  0.31977353  0.62650907  0.72224114    -0.79970
C554        C  0.26041441  0.73609884  0.67362330     0.95290
O555        O  0.28774626  0.67992109  0.63646613    -0.77930
O556        O  0.32661176  0.74702764  0.71949346    -0.83120
C557        C  0.38682653  0.69060618  0.70306223     0.97910
C558        C  0.33493391  0.73874971  0.74574429     1.03830
O559        O  0.37263818  0.66747017  0.71261837    -0.78760
C560        C  0.30869606  0.69418179  0.62265885     1.02130
C561        C  0.98505937  0.75805995  0.75687911    -0.00260
C562        C  0.01585167  0.75934312  0.75883135    -0.00260
C563        C  0.25521272  0.75313303  0.52123106    -0.00260
C564        C  0.25681441  0.75106167  0.49035545    -0.00260
C565        C  0.98356197  0.74994439  0.25638156    -0.00260
C566        C  0.01437796  0.74951237  0.25650051    -0.00260
Fe567      Fe  0.32766097  0.82853917  0.23389040     1.65780
Fe568      Fe  0.32722892  0.77491995  0.17929539     1.73250
Fe569      Fe  0.27463794  0.83019268  0.17860344     1.54420
O570        O  0.25122890  0.82693776  0.21806915    -0.82500
O571        O  0.31662396  0.78775091  0.13526995    -0.80800
O572        O  0.28578196  0.83974233  0.25247823    -0.85000
O573        O  0.33144765  0.87126473  0.21522016    -0.79860
O574        O  0.25445770  0.78970918  0.16710417    -0.81630
O575        O  0.36989019  0.79345428  0.17667405    -0.84380
C576        C  0.30924777  0.88619314  0.20466917     0.96390
C577        C  0.25868281  0.83377804  0.24478750     1.03830
O578        O  0.31024438  0.81156240  0.19701393    -1.13360
O579        O  0.33784742  0.75521012  0.22044723    -0.75790
O580        O  0.32450771  0.78798037  0.25617797    -0.79280
O581        O  0.28799875  0.87340312  0.19010136    -0.79970
C582        C  0.33206384  0.76171029  0.24773269     0.95290
O583        O  0.37153896  0.81707384  0.22116554    -0.77930
O584        O  0.28638502  0.75380096  0.18245888    -0.83120
C585        C  0.30357544  0.80999411  0.12238664     0.97910
C586        C  0.26026221  0.76269025  0.17473211     1.03830
O587        O  0.29546506  0.83324673  0.13704666    -0.78760
C588        C  0.38436990  0.80276822  0.19968905     1.02130
Fe589      Fe  0.22225606  0.83206061  0.33630180     1.65780
Fe590      Fe  0.16837438  0.82774581  0.28184344     1.73250
Fe591      Fe  0.16978298  0.77592425  0.33794666     1.54410
O592        O  0.21180006  0.75772732  0.34767887    -0.82500
O593        O  0.12620473  0.83109896  0.30138322    -0.80800
O594        O  0.24650117  0.79217146  0.33535665    -0.85000
O595        O  0.20997148  0.82300324  0.38108761    -0.79860
O596        O  0.17227038  0.75183924  0.29848387    -0.81630
O597        O  0.17862459  0.87219108  0.29206837    -0.84380
C598        C  0.18938797  0.80768615  0.39424815     0.96390
C599        C  0.23892959  0.76529046  0.34211968     1.03830
O600        O  0.18650544  0.81218302  0.31908092    -1.13360
O601        O  0.20889820  0.82419726  0.25992324    -0.75790
O602        O  0.24113359  0.84194709  0.29439991    -0.79280
O603        O  0.16705738  0.79659627  0.37989287    -0.79970
C604        C  0.23487065  0.83359030  0.26766776     0.95290
O605        O  0.20124780  0.87393877  0.33686847    -0.77930
O606        O  0.15726019  0.78569999  0.26440138    -0.83120
C607        C  0.11202019  0.80873464  0.31258558     0.97910
C608        C  0.16406167  0.75885468  0.27195072     1.03830
O609        O  0.12556478  0.78801960  0.32750627    -0.78760
C610        C  0.19121067  0.88700003  0.31315694     1.02130
Fe611      Fe  0.32805543  0.67063295  0.28487160     1.65780
Fe612      Fe  0.32905792  0.72488858  0.33885866     1.73250
Fe613      Fe  0.27293891  0.67245028  0.33811548     1.54420
O614        O  0.25112634  0.67501928  0.29711713    -0.82500
O615        O  0.31979585  0.71072735  0.38284809    -0.80800
O616        O  0.28712405  0.66046788  0.26506565    -0.85000
O617        O  0.32950248  0.62860098  0.30533336    -0.79860
O618        O  0.25433346  0.71444301  0.34795009    -0.81630
O619        O  0.37145710  0.70511197  0.34078463    -0.84380
C620        C  0.30623036  0.61459141  0.31483604     0.96390
C621        C  0.25990885  0.66700977  0.27104655     1.03830
O622        O  0.31027355  0.68909995  0.32090955    -1.13360
O623        O  0.33868735  0.74449235  0.29746954    -0.75790
O624        O  0.32652919  0.71092912  0.26186781    -0.79280
O625        O  0.28473005  0.62814289  0.32831223    -0.79970
C626        C  0.33286191  0.73757061  0.27024588     0.95290
O627        O  0.37197301  0.68006897  0.29737041    -0.77930
O628        O  0.28931246  0.74886895  0.33687518    -0.83120
C629        C  0.30522983  0.68948330  0.39592429     0.97910
C630        C  0.26223758  0.74154651  0.34253815     1.03830
O631        O  0.29152571  0.66910833  0.38103631    -0.78760
C632        C  0.38559560  0.69386231  0.31844816     1.02130
Fe633      Fe  0.16995753  0.66884580  0.23256179     1.65780
Fe634      Fe  0.16952878  0.72497303  0.17980176     1.73250
Fe635      Fe  0.22490552  0.67213166  0.17914026     1.54410
O636        O  0.24667319  0.67404986  0.22015950    -0.82500
O637        O  0.18065671  0.71363558  0.13574551    -0.80800
O638        O  0.21097019  0.65910788  0.25252065    -0.85000
O639        O  0.16919685  0.62652772  0.21225499    -0.79860
O640        O  0.24319463  0.71353148  0.16957672    -0.81630
O641        O  0.12777376  0.70436136  0.17634519    -0.84380
C642        C  0.19221142  0.61344238  0.20080957     0.96390
C643        C  0.23800031  0.66639192  0.24643081     1.03830
O644        O  0.18784294  0.68838329  0.19685781    -1.13360
O645        O  0.15801356  0.74287275  0.22157736    -0.75790
O646        O  0.17120597  0.70864489  0.25626071    -0.79280
O647        O  0.21315259  0.62818604  0.18796573    -0.79970
C648        C  0.16397281  0.73534047  0.24868495     0.95290
O649        O  0.12588688  0.67850393  0.21949384    -0.77930
O650        O  0.20949555  0.74866543  0.18253799    -0.83120
C651        C  0.19570584  0.69321205  0.12220480     0.97910
C652        C  0.23602996  0.74058142  0.17520696     1.03830
O653        O  0.20642635  0.67041642  0.13619180    -0.78760
C654        C  0.11301041  0.69354900  0.19852784     1.02130
C655        C  0.24602371  0.75560966  0.02251901    -0.00260
C656        C  0.24509592  0.75704329  0.99167991    -0.00260
C657        C  0.24695230  0.51585742  0.26024543    -0.00260
C658        C  0.24888503  0.48521828  0.25857876    -0.00260
C659        C  0.25463317  0.25641720  0.99210329    -0.00260
C660        C  0.25561823  0.25612879  0.02294036    -0.00260
C661        C  0.25344501  0.98537493  0.26116630    -0.00260
C662        C  0.25362697  0.01612092  0.26115365    -0.00260
Fe663      Fe  0.27481424  0.32840024  0.33430440     1.65780
Fe664      Fe  0.32928010  0.27510574  0.33836217     1.73250
Fe665      Fe  0.33062353  0.32796791  0.28257513     1.54410
O666        O  0.29137863  0.32425062  0.25815473    -0.82500
O667        O  0.37356746  0.28735285  0.32785568    -0.80800
O668        O  0.25735940  0.33921155  0.29208088    -0.85000
O669        O  0.29454995  0.37022537  0.33769335    -0.79860
O670        O  0.34271311  0.28606883  0.26512686    -0.81630
O671        O  0.33086742  0.29575622  0.38044195    -0.84380
C672        C  0.30400084  0.38492168  0.31494475     0.96390
C673        C  0.26492107  0.33270260  0.26518973     1.03830
O674        O  0.31182079  0.31075313  0.31867492    -1.13360
O675        O  0.28795922  0.25598548  0.34904126    -0.75790
O676        O  0.25276592  0.28768949  0.33151897    -0.79280
O677        O  0.31859063  0.37219428  0.29363901    -0.79970
C678        C  0.26109504  0.26181418  0.34081569     0.95290
O679        O  0.28628725  0.31888723  0.37831858    -0.77930
O680        O  0.32651918  0.25188085  0.29855589    -0.83120
C681        C  0.38641618  0.30909821  0.31398107     0.97910
C682        C  0.33443721  0.25939748  0.27204542     1.03830
O683        O  0.37160583  0.33186248  0.30441752    -0.78760
C684        C  0.30762748  0.30681532  0.39338096     1.02130
Fe685      Fe  0.22439848  0.17057316  0.33471493     1.65780
Fe686      Fe  0.17053401  0.22539100  0.33879737     1.73250
Fe687      Fe  0.16863433  0.17356024  0.28266831     1.54410
O688        O  0.20823524  0.17668060  0.25861407    -0.82500
O689        O  0.12585651  0.21351398  0.32884011    -0.80800
O690        O  0.24205128  0.16089858  0.29256854    -0.85000
O691        O  0.20504123  0.12791684  0.33636380    -0.79860
O692        O  0.15733327  0.21562544  0.26525704    -0.81630
O693        O  0.16967038  0.20482621  0.38115048    -0.84380
C694        C  0.19315952  0.11466105  0.31379331     0.96390
C695        C  0.23460725  0.16784997  0.26572842     1.03830
O696        O  0.18758272  0.18950836  0.31912061    -1.13360
O697        O  0.21204659  0.24397510  0.34869031    -0.75790
O698        O  0.24705008  0.21123081  0.33299410    -0.79280
O699        O  0.17895850  0.12932253  0.29346688    -0.79970
C700        C  0.23891734  0.23747783  0.34120263     0.95290
O701        O  0.21301062  0.17933727  0.37904170    -0.77930
O702        O  0.17273040  0.24941758  0.29906839    -0.83120
C703        C  0.11287665  0.19225836  0.31442336     0.97910
C704        C  0.16500665  0.24228156  0.27245860     1.03830
O705        O  0.12758673  0.16988306  0.30414417    -0.78760
C706        C  0.19284148  0.19332358  0.39401827     1.02130
Fe707      Fe  0.17021746  0.27548664  0.17943974     1.65780
Fe708      Fe  0.17259839  0.33151565  0.23169517     1.73250
Fe709      Fe  0.22452265  0.32920107  0.17571955     1.54410
O710        O  0.24293373  0.28796419  0.16439230    -0.82500
O711        O  0.17009596  0.37361087  0.21132956    -0.80800
O712        O  0.21103183  0.25292158  0.18157571    -0.85000
O713        O  0.17966912  0.28687414  0.13458971    -0.79860
O714        O  0.24882593  0.32599715  0.21505578    -0.81630
O715        O  0.12807954  0.32166926  0.22029639    -0.84380
C716        C  0.19271027  0.30859087  0.12079857     0.96390
C717        C  0.23705363  0.26116347  0.17258485     1.03830
O718        O  0.18871729  0.31231181  0.19537662    -1.13360
O719        O  0.17474460  0.29182757  0.25574718    -0.75790
O720        O  0.16011656  0.25776504  0.22175574    -0.79280
O721        O  0.20233009  0.33179482  0.13477482    -0.79970
C722        C  0.16627517  0.26541199  0.24872106     0.95290
O723        O  0.12759698  0.29498907  0.17770780    -0.77930
O724        O  0.21503497  0.34159233  0.24903457    -0.83120
C725        C  0.19269356  0.38743153  0.20017930     0.97910
C726        C  0.24171004  0.33381021  0.24165361     1.03830
O727        O  0.21338141  0.37333510  0.18610975    -0.78760
C728        C  0.11389422  0.30683580  0.20007678     1.02130
Fe729      Fe  0.32877057  0.22565609  0.17930545     1.65780
Fe730      Fe  0.32694814  0.17045785  0.23244031     1.73250
Fe731      Fe  0.27495194  0.17119278  0.17646957     1.54420
O732        O  0.25593888  0.21231190  0.16499411    -0.82500
O733        O  0.33081339  0.12870636  0.21254623    -0.80800
O734        O  0.28777210  0.24775369  0.18142609    -0.85000
O735        O  0.31903468  0.21389783  0.13481374    -0.79860
O736        O  0.25072703  0.17434159  0.21565832    -0.81630
O737        O  0.37109716  0.18089774  0.22088323    -0.84380
C738        C  0.30582393  0.19227098  0.12119479     0.96390
C739        C  0.26173396  0.23923565  0.17273342     1.03830
O740        O  0.31058377  0.18884781  0.19577109    -1.13360
O741        O  0.32385027  0.21023541  0.25564032    -0.75790
O742        O  0.33929935  0.24382901  0.22133579    -0.79280
O743        O  0.29656366  0.16884063  0.13516316    -0.79970
C744        C  0.33283395  0.23644950  0.24836095     0.95290
O745        O  0.37142793  0.20632630  0.17739265    -0.77930
O746        O  0.28470556  0.15950436  0.24987542    -0.83120
C747        C  0.30857158  0.11406800  0.20189288     0.97910
C748        C  0.25791709  0.16685588  0.24234672     1.03830
O749        O  0.28713085  0.12714714  0.18775164    -0.78760
C750        C  0.38523877  0.19479019  0.19994125     1.02130
C751        C  0.98416973  0.24264142  0.24978414    -0.00260
C752        C  0.01497275  0.24375341  0.25062051    -0.00260
C753        C  0.06924147  0.30813432  0.23442951    -0.09980
C754        C  0.08141123  0.29921725  0.20635072     0.06220
C755        C  0.06516604  0.27732848  0.18958073    -0.03750
C756        C  0.04110660  0.26156282  0.20316355    -0.08200
C757        C  0.03267411  0.26703677  0.23325511     0.05330
C758        C  0.04537522  0.29225225  0.24791931    -0.03220
Br759      Br  0.03228853  0.30523954  0.28710504    -0.02920
H760        H  0.08000852  0.32584758  0.24741912     0.09240
H761        H  0.03043520  0.24353203  0.19073883     0.07260
Br762      Br  0.07548415  0.26622099  0.14894468    -0.03340
C763        C  0.07428695  0.18672673  0.27451451    -0.09980
C764        C  0.08124283  0.19686633  0.30380884     0.06220
C765        C  0.06110336  0.21729186  0.31779369    -0.03750
C766        C  0.03699038  0.22973111  0.30116132    -0.08200
C767        C  0.03317030  0.22302536  0.27032632     0.05330
C768        C  0.05104924  0.19995528  0.25762193    -0.03220
Br769      Br  0.04683893  0.18705031  0.21650979    -0.02920
H770        H  0.08903408  0.17075987  0.26325875     0.09240
H771        H  0.02260077  0.24634480  0.31181127     0.07260
Br772      Br  0.06644558  0.23029987  0.35880187    -0.03340
C773        C  0.23713224  0.04149180  0.30921098    -0.09980
C774        C  0.23110111  0.03399371  0.27895950     0.06220
C775        C  0.20590146  0.04740409  0.26477924    -0.03750
C776        C  0.19036789  0.07083110  0.27905974    -0.08200
C777        C  0.19993251  0.08219887  0.30723756     0.05330
C778        C  0.22181169  0.06532976  0.32348781    -0.03220
Br779      Br  0.23321723  0.07445251  0.36432665    -0.02920
H780        H  0.25513761  0.03016966  0.32126080     0.09240
H781        H  0.17256132  0.08210548  0.26648193     0.07260
Br782      Br  0.19264092  0.03644024  0.22507155    -0.03340
C783        C  0.26919101  0.03964002  0.21182125    -0.09980
C784        C  0.27552027  0.03405058  0.24246676     0.06220
C785        C  0.29973797  0.04976548  0.25594490    -0.03750
C786        C  0.31383704  0.07351961  0.24034383    -0.08200
C787        C  0.30416272  0.08207256  0.21120365     0.05330
C788        C  0.28344471  0.06318527  0.19609261    -0.03220
Br789      Br  0.27223772  0.06972926  0.15462482    -0.02920
H790        H  0.25168801  0.02733920  0.20055363     0.09240
H791        H  0.33027687  0.08712453  0.25229465     0.07260
Br792      Br  0.31345408  0.04102036  0.29614309    -0.03340
C793        C  0.25378807  0.21177022  0.05734327    -0.09980
C794        C  0.27179031  0.23202183  0.04070705     0.06220
C795        C  0.30334261  0.23196377  0.04605287    -0.03750
C796        C  0.31520108  0.21545974  0.07058205    -0.08200
C797        C  0.29638290  0.19799894  0.08943745     0.05330
C798        C  0.26568569  0.19459261  0.08112790    -0.03220
Br799      Br  0.23725328  0.17098548  0.10410354    -0.02920
H800        H  0.22965936  0.21077522  0.05314508     0.09240
H801        H  0.33890008  0.21809356  0.07633103     0.07260
Br802      Br  0.33131056  0.25541514  0.02266721    -0.03340
C803        C  0.20541056  0.26920287  0.04600657    -0.09980
C804        C  0.23598784  0.27667745  0.04131399     0.06220
C805        C  0.24872152  0.30010055  0.05872568    -0.02950
C806        C  0.23190130  0.31378361  0.08161326    -0.08200
C807        C  0.20280108  0.30349485  0.08911504     0.05330
C808        C  0.18891666  0.28208226  0.06990445    -0.03220
Br809      Br  0.14830967  0.26819077  0.07643836    -0.02920
H810        H  0.19510594  0.25145289  0.03268918     0.09240
H811        H  0.24320415  0.33011341  0.09592351     0.07260
Br812      Br  0.29007832  0.31234901  0.05524235    -0.03340
C813        C  0.20052516  0.45770631  0.24751291    -0.09980
C814        C  0.22903773  0.46758324  0.23756024     0.06220
C815        C  0.23998556  0.45661055  0.20979856    -0.03750
C816        C  0.22472776  0.43325532  0.19500901    -0.08200
C817        C  0.19869159  0.41982805  0.20761147     0.05330
C818        C  0.18511954  0.43430260  0.23269576    -0.03220
Br819      Br  0.14708890  0.42199687  0.24968893    -0.02920
H820        H  0.19110801  0.46667052  0.26817291     0.09240
H821        H  0.23506938  0.42364941  0.17501566     0.07260
Br822      Br  0.27678534  0.47069826  0.19188615    -0.03340
C823        C  0.25067213  0.44984325  0.30197969    -0.09980
C824        C  0.26692167  0.46675222  0.28058483     0.06220
C825        C  0.29816336  0.46073914  0.27713745    -0.03750
C826        C  0.31114790  0.43571480  0.29176022    -0.08200
C827        C  0.29372042  0.41649634  0.31012949     0.05330
C828        C  0.26352382  0.42495178  0.31663398    -0.03220
Br829      Br  0.23641126  0.40105688  0.34092220    -0.02920
H830        H  0.22693085  0.45456374  0.30565554     0.09240
H831        H  0.33446357  0.42990418  0.28688143     0.07260
Br832      Br  0.32428874  0.48385481  0.25150288    -0.03340
C833        C  0.18420584  0.56768536  0.23251462    -0.09980
C834        C  0.19836453  0.58094243  0.20730317     0.06220
C835        C  0.22430199  0.56635174  0.19526674    -0.03750
C836        C  0.23825095  0.54301262  0.21150512    -0.08200
C837        C  0.22671508  0.53327350  0.23936647     0.05330
C838        C  0.19813476  0.54408974  0.24853253    -0.03220
Br839      Br  0.17769451  0.52913888  0.28360954    -0.02920
H840        H  0.16380993  0.57761753  0.24174323     0.09240
H841        H  0.25942010  0.53395634  0.20329191     0.07260
Br842      Br  0.24383417  0.57870824  0.15835563    -0.03340
C843        C  0.18640478  0.72005122  0.07367146    -0.09980
C844        C  0.20431655  0.69951719  0.09018294     0.06220
C845        C  0.23377239  0.69316622  0.07927306    -0.03750
C846        C  0.24523543  0.70917554  0.05434881    -0.08200
C847        C  0.22869169  0.73254424  0.04050035     0.05330
C848        C  0.19846293  0.73703455  0.04973197    -0.03220
Br849      Br  0.17362196  0.76882273  0.03424142    -0.02920
H850        H  0.16382741  0.72543614  0.08156304     0.09240
H851        H  0.26841932  0.70525375  0.04763594     0.07260
Br852      Br  0.26192531  0.66733395  0.10015564    -0.03340
C853        C  0.29187612  0.54953740  0.26291293    -0.09980
C854        C  0.26869897  0.53435833  0.27844056     0.06220
C855        C  0.26421710  0.54110406  0.30927526    -0.03750
C856        C  0.27982104  0.56536536  0.32247352    -0.08200
C857        C  0.30070351  0.58271741  0.30574493     0.05330
C858        C  0.30838186  0.57283454  0.27635422    -0.03220
Br859      Br  0.33818982  0.59229793  0.25134106    -0.02920
H860        H  0.29636210  0.54418731  0.23948763     0.09240
H861        H  0.27394660  0.57209071  0.34527238     0.07260
Br862      Br  0.23595110  0.51961703  0.33408777    -0.03340
C863        C  0.22468106  0.93140902  0.32154610    -0.09980
C864        C  0.19922882  0.91920402  0.30687292     0.06220
C865        C  0.18773431  0.93481140  0.28122506    -0.03750
C866        C  0.20418274  0.95873960  0.26848562    -0.08200
C867        C  0.23210967  0.96758980  0.28054038     0.05330
C868        C  0.24115502  0.95522633  0.30857908    -0.03220
Br869      Br  0.27677695  0.96843857  0.32938378    -0.02920
H870        H  0.23365897  0.92057898  0.34166608     0.09240
H871        H  0.19590790  0.96920928  0.24796401     0.07260
Br872      Br  0.15102376  0.92345377  0.26086033    -0.03340
C873        C  0.28070015  0.93386144  0.19833624    -0.09980
C874        C  0.30442849  0.91850593  0.21303299     0.06220
C875        C  0.31576151  0.93096226  0.24028698    -0.03750
C876        C  0.30093814  0.95562009  0.25363623    -0.08200
C877        C  0.27405903  0.96731483  0.24136310     0.05330
C878        C  0.26478988  0.95703039  0.21263421    -0.03220
Br879      Br  0.22840163  0.97013802  0.19302428    -0.02920
H880        H  0.27190250  0.92534100  0.17712381     0.09240
H881        H  0.30913586  0.96399220  0.27504483     0.07260
Br882      Br  0.34835678  0.91330973  0.26306859    -0.03340
C883        C  0.30948515  0.78549736  0.07216585    -0.09980
C884        C  0.29320819  0.80551825  0.09073868     0.06220
C885        C  0.26333066  0.81330853  0.08215466    -0.03750
C886        C  0.24964837  0.79876326  0.05771673    -0.08200
C887        C  0.26487343  0.77655885  0.04108759     0.05330
C888        C  0.29561201  0.77093191  0.04766225    -0.03220
Br889      Br  0.31879142  0.74103844  0.02666206    -0.02920
H890        H  0.33232806  0.77904081  0.07837713     0.09240
H891        H  0.22605736  0.80334642  0.05303447     0.07260
Br892      Br  0.23760910  0.83941290  0.10546673    -0.03340
C893        C  0.04696471  0.74536933  0.21080891    -0.09980
C894        C  0.03243929  0.73065944  0.23493305     0.06220
C895        C  0.03965387  0.70005685  0.24052124    -0.03750
C896        C  0.06377851  0.68647821  0.22504393    -0.08200
C897        C  0.08094869  0.70268991  0.20360543     0.05330
C898        C  0.07054579  0.73170302  0.19484098    -0.03220
Br899      Br  0.08949908  0.75608620  0.16416741    -0.02920
H900        H  0.04104799  0.76844404  0.20523008     0.09240
H901        H  0.07072688  0.66390231  0.23167039     0.07260
Br902      Br  0.01932119  0.67606248  0.27031729    -0.03340
C903        C  0.04363677  0.79752513  0.26288220    -0.09980
C904        C  0.03219970  0.77086324  0.27584022     0.06220
C905        C  0.04172564  0.76301523  0.30530323    -0.03750
C906        C  0.06476094  0.77944532  0.31935947    -0.08200
C907        C  0.07982899  0.80303754  0.30419995     0.05330
C908        C  0.06739777  0.81349229  0.27648819    -0.03220
Br909      Br  0.08377396  0.84670377  0.25363450    -0.02920
H910        H  0.03565929  0.80481455  0.24090367     0.09240
H911        H  0.07314086  0.77148520  0.34102430     0.07260
Br912      Br  0.02697657  0.72841764  0.32674315    -0.03340
C913        C  0.26048052  0.70026060  0.46623362    -0.09980
C914        C  0.27554465  0.72594436  0.47711466     0.06220
C915        C  0.30591442  0.73058659  0.46847638    -0.03750
C916        C  0.31846195  0.71301063  0.44524830    -0.08200
C917        C  0.30054761  0.69196353  0.42936007     0.05330
C918        C  0.27267508  0.68314209  0.44259534    -0.03220
Br919      Br  0.24715461  0.65198079  0.42641439    -0.02920
H920        H  0.23734351  0.69603814  0.47309578     0.09240
H921        H  0.34032164  0.71956106  0.43626330     0.07260
Br922      Br  0.32811201  0.76551595  0.48121869    -0.03340
C923        C  0.22289220  0.79741879  0.47319943    -0.09980
C924        C  0.23775127  0.76940135  0.46782074     0.06220
C925        C  0.23494603  0.75820161  0.43828438    -0.03750
C926        C  0.20951844  0.76518715  0.42149650    -0.08200
C927        C  0.19754032  0.79422411  0.42393091     0.05330
C928        C  0.20457567  0.81083259  0.45030189    -0.03220
Br929      Br  0.18951820  0.85099219  0.45562189    -0.02920
H930        H  0.22691774  0.81008836  0.49360930     0.09240
H931        H  0.20621074  0.75264132  0.40082399     0.07260
Br932      Br  0.27029638  0.76042472  0.41345728    -0.03340
C933        C  0.27707442  0.69022098  0.57629095    -0.09980
C934        C  0.30282740  0.70263951  0.59035435     0.06220
C935        C  0.31641027  0.72820570  0.57651870    -0.03750
C936        C  0.30167104  0.74302102  0.55254962    -0.08200
C937        C  0.27379983  0.73273119  0.54128942     0.05330
C938        C  0.26246320  0.70503932  0.55236548    -0.03220
Br939      Br  0.22577207  0.68729432  0.53790617    -0.02920
H940        H  0.26651272  0.67015611  0.58565958     0.09240
H941        H  0.31125922  0.76381892  0.54394169     0.07260
Br942      Br  0.35355851  0.74596775  0.59032973    -0.03340
C943        C  0.28244342  0.81696485  0.94189801    -0.09980
C944        C  0.30095821  0.79848669  0.92380333     0.06220
C945        C  0.30626567  0.76844041  0.93353439    -0.03750
C946        C  0.28960729  0.75646423  0.95759865    -0.08200
C947        C  0.26835441  0.77386607  0.97344214     0.05330
C948        C  0.26678697  0.80514760  0.96698090    -0.03220
Br949      Br  0.24301548  0.83276556  0.99028560    -0.02920
H950        H  0.27865510  0.84031482  0.93539986     0.09240
H951        H  0.29204650  0.73265039  0.96282219     0.07260
Br952      Br  0.33244606  0.74070959  0.91275803    -0.03340
C953        C  0.19148751  0.78674046  0.56743592    -0.09980
C954        C  0.20821089  0.80552293  0.58687339     0.06220
C955        C  0.23842850  0.81266431  0.57881173    -0.03750
C956        C  0.25212739  0.79791755  0.55452377    -0.08200
C957        C  0.23668741  0.77582275  0.53794801     0.05330
C958        C  0.20533851  0.77220885  0.54290212    -0.03220
Br959      Br  0.18050699  0.74719038  0.51776730    -0.02920
H960        H  0.16807122  0.78161997  0.57260505     0.09240
H961        H  0.27585470  0.80205373  0.55011771     0.07260
Br962      Br  0.26451624  0.83809586  0.60251071    -0.03340
C963        C  0.07208755  0.81757905  0.72958551    -0.09980
C964        C  0.08303640  0.80338623  0.70334909     0.06220
C965        C  0.06618347  0.77868422  0.69188017    -0.03750
C966        C  0.04154594  0.76703325  0.70855709    -0.08200
C967        C  0.03451108  0.77818874  0.73752761     0.05330
C968        C  0.05008302  0.80406506  0.74766771    -0.03220
Br969      Br  0.04729291  0.81955263  0.78791554    -0.02920
H970        H  0.08389147  0.83697698  0.73875635     0.09240
H971        H  0.02979379  0.74725686  0.70020218     0.07260
Br972      Br  0.07743601  0.75752432  0.65580918    -0.03340
C973        C  0.18457187  0.73187784  0.93634291    -0.09980
C974        C  0.19680470  0.70452992  0.92575423     0.06220
C975        C  0.22070194  0.69131321  0.94271168    -0.03750
C976        C  0.23366524  0.70727041  0.96700640    -0.08200
C977        C  0.22460631  0.73700535  0.97366206     0.05330
C978        C  0.19929883  0.74891370  0.95828580    -0.03220
Br979      Br  0.18615534  0.78998768  0.96168575    -0.02920
H980        H  0.16582716  0.74244382  0.92452310     0.09240
H981        H  0.25289761  0.69758412  0.97878913     0.07260
Br982      Br  0.23908363  0.65343380  0.93230588    -0.03340
C983        C  0.06406011  0.72369507  0.82107405    -0.09980
C984        C  0.08040902  0.70250713  0.80387803     0.06220
C985        C  0.06888172  0.69482259  0.77495387    -0.03750
C986        C  0.04688845  0.71297223  0.76150276    -0.08200
C987        C  0.03326805  0.73676762  0.77717646     0.05330
C988        C  0.03989051  0.74004302  0.80826851    -0.03220
Br989      Br  0.01757215  0.76646459  0.83422870    -0.02920
H990        H  0.07123575  0.72901775  0.84387670     0.09240
H991        H  0.04105324  0.70896679  0.73807239     0.07260
Br992      Br  0.08303621  0.66132380  0.75111905    -0.03340
C993        C  0.45214301  0.70732556  0.75446778    -0.09980
C994        C  0.46725647  0.72942756  0.73733484     0.06220
C995        C  0.46080990  0.73138398  0.70609805    -0.03750
C996        C  0.43668155  0.71481162  0.69392302    -0.08200
C997        C  0.41870608  0.69597544  0.71221942     0.05330
C998        C  0.42802443  0.69078902  0.74241821    -0.03220
Br999      Br  0.40595321  0.66570049  0.77030204    -0.02920
H1000       H  0.45752832  0.70454271  0.77821163     0.09240
H1001       H  0.43026642  0.71872359  0.67055772     0.07260
Br1002     Br  0.48215244  0.75746118  0.67898479    -0.03340
C1003       C  0.45900695  0.76327290  0.80363289    -0.09980
C1004       C  0.46674486  0.77306860  0.77442724     0.06220
C1005       C  0.45376595  0.80003668  0.76338684    -0.03750
C1006       C  0.43039974  0.81407765  0.77941020    -0.08200
C1007       C  0.41926393  0.80151048  0.80644495     0.05330
C1008       C  0.43556607  0.77727762  0.81972990    -0.03220
Br1009     Br  0.42573225  0.76106222  0.85886162    -0.02920
H1010       H  0.46992520  0.74349898  0.81319876     0.09240
H1011       H  0.41895041  0.83312059  0.76897754     0.07260
Br1012     Br  0.46549096  0.81776816  0.72565041    -0.03340
C1013       C  0.53758937  0.70344976  0.73759883    -0.09980
C1014       C  0.53455148  0.73488680  0.73391042     0.06220
C1015       C  0.55320510  0.74962502  0.71253864    -0.03750
C1016       C  0.57601824  0.73366333  0.69773631    -0.08200
C1017       C  0.58206114  0.70331392  0.70486966     0.05330
C1018       C  0.56152906  0.68774570  0.72382745    -0.03220
Br1019     Br  0.56638397  0.64565021  0.73319544    -0.02920
H1020       H  0.52275814  0.69146191  0.75299997     0.09240
H1021       H  0.59130953  0.74617438  0.68317184     0.07260
Br1022     Br  0.55035597  0.79203741  0.70371353    -0.03340
C1023       C  0.56980962  0.76816992  0.81977789    -0.09980
C1024       C  0.57913873  0.79770447  0.81257513     0.06220
C1025       C  0.56095007  0.81487022  0.79253242    -0.03750
C1026       C  0.53756393  0.80081259  0.77639694    -0.08200
C1027       C  0.53236088  0.76967866  0.77946280     0.05330
C1028       C  0.54675958  0.75408839  0.80332843    -0.03220
Br1029     Br  0.53698676  0.71306470  0.81344915    -0.02920
H1030       H  0.58264995  0.75469046  0.83579504     0.09240
H1031       H  0.52514595  0.81374152  0.75968534     0.07260
Br1032     Br  0.56871968  0.85679668  0.78434146    -0.03340
C1033       C  0.93409645  0.81705894  0.72069264    -0.09980
C1034       C  0.91679482  0.79858453  0.70157437     0.06220
C1035       C  0.92749697  0.76904157  0.69548933    -0.03750
C1036       C  0.95293360  0.75793605  0.71085791    -0.08200
C1037       C  0.96734518  0.77495074  0.73339217     0.05330
C1038       C  0.95847542  0.80534374  0.73719721    -0.03220
Br1039     Br  0.97467466  0.83080278  0.76792175    -0.02920
H1040       H  0.92631925  0.83972956  0.72574267     0.09240
H1041       H  0.95945804  0.73465824  0.70739615     0.07260
Br1042     Br  0.90553814  0.74029179  0.67145678    -0.03340
C1043       C  0.93628132  0.69501332  0.79017772    -0.09980
C1044       C  0.91803349  0.71157185  0.81027998     0.06220
C1045       C  0.92609952  0.74197060  0.81628411    -0.03750
C1046       C  0.94991271  0.75550765  0.80043517    -0.08200
C1047       C  0.96630471  0.73977824  0.77841273     0.05330
C1048       C  0.95989877  0.70881881  0.77403496    -0.03220
Br1049     Br  0.97957722  0.68495437  0.74380211    -0.02920
H1050       H  0.93041997  0.67183193  0.78490721     0.09240
H1051       H  0.95431241  0.77929602  0.80393938     0.07260
Br1052     Br  0.90296171  0.76839500  0.84181008    -0.03340
C1053       C  0.73421744  0.53992125  0.71026943    -0.09980
C1054       C  0.73103920  0.53447103  0.74137414     0.06220
C1055       C  0.70688033  0.54847822  0.75671105    -0.03750
C1056       C  0.69008188  0.57125228  0.74236746    -0.08200
C1057       C  0.69714203  0.58058777  0.71276491     0.05330
C1058       C  0.71764105  0.56284390  0.69591593    -0.03220
Br1059     Br  0.72596635  0.57070409  0.65400052    -0.02920
H1060       H  0.75118939  0.52804796  0.69748359     0.09240
H1061       H  0.67382200  0.58384140  0.75563635     0.07260
Br1062     Br  0.69681710  0.53852058  0.79771007    -0.03340
C1063       C  0.81362407  0.57741664  0.77646218    -0.09980
C1064       C  0.80654569  0.58409273  0.80664979     0.06220
C1065       C  0.78742518  0.56390449  0.82254938    -0.03750
C1066       C  0.77344762  0.53980759  0.80727192    -0.08200
C1067       C  0.77709060  0.53614171  0.77591629     0.05330
C1068       C  0.79863330  0.55442346  0.76090314    -0.03220
Br1069     Br  0.80739491  0.55106913  0.71856566    -0.02920
H1070       H  0.82829801  0.59236683  0.76367322     0.09240
H1071       H  0.75784803  0.52538199  0.81949524     0.07260
Br1072     Br  0.77793460  0.56943020  0.86450556    -0.03340
C1073       C  0.72554384  0.43585088  0.69684343    -0.09980
C1074       C  0.70047140  0.42223535  0.71104288     0.06220
C1075       C  0.68912498  0.43591670  0.73766684    -0.03750
C1076       C  0.70554461  0.45926962  0.75155463    -0.08200
C1077       C  0.73348868  0.46891827  0.73984932     0.05330
C1078       C  0.74242699  0.45825126  0.71125712    -0.03220
Br1079     Br  0.77911417  0.47067602  0.69187506    -0.02920
H1080       H  0.73424316  0.42667717  0.67588152     0.09240
H1081       H  0.69745111  0.46843099  0.77271990     0.07260
Br1082     Br  0.65344524  0.42208654  0.75823809    -0.03340
C1083       C  0.81541923  0.43525882  0.79259202    -0.09980
C1084       C  0.79768368  0.41754261  0.81220219     0.06220
C1085       C  0.76847530  0.42827316  0.81983534    -0.03750
C1086       C  0.75656249  0.45364017  0.80494559    -0.08200
C1087       C  0.77267627  0.46851443  0.78192255     0.05330
C1088       C  0.80330371  0.46051074  0.77758339    -0.03220
Br1089     Br  0.82958929  0.48142616  0.75039957    -0.02920
H1090       H  0.83814256  0.42798457  0.78696225     0.09240
H1091       H  0.73348024  0.46021783  0.80971344     0.07260
Br1092     Br  0.74132842  0.40703401  0.84639218    -0.03340
C1093       C  0.79438632  0.04109805  0.74227780    -0.09980
C1094       C  0.76468050  0.03464037  0.73278637     0.06220
C1095       C  0.75337920  0.04983176  0.70710679    -0.03750
C1096       C  0.77088150  0.07160514  0.69255902    -0.08200
C1097       C  0.79802662  0.08221987  0.70534163     0.05330
C1098       C  0.81080368  0.06522478  0.72941885    -0.03220
Br1099     Br  0.84873253  0.07533049  0.74795091    -0.02920
H1100       H  0.80369773  0.02927056  0.76168106     0.09240
H1101       H  0.76076579  0.08337260  0.67351668     0.07260
Br1102     Br  0.71251087  0.04648624  0.69322581    -0.03340
C1103       C  0.74432854  0.05077901  0.79716818    -0.09980
C1104       C  0.72710071  0.03473744  0.77593907     0.06220
C1105       C  0.69581804  0.04111939  0.77390466    -0.03750
C1106       C  0.68381549  0.06616739  0.78924469    -0.08200
C1107       C  0.70215992  0.08451147  0.80761259     0.05330
C1108       C  0.73227551  0.07511807  0.81316917    -0.03220
Br1109     Br  0.76016101  0.09692727  0.83837999    -0.02920
H1110       H  0.76814378  0.04568501  0.79986880     0.09240
H1111       H  0.66047344  0.07253414  0.78518487     0.07260
Br1112     Br  0.66845116  0.01804890  0.74959989    -0.03340
C1113       C  0.70134134  0.95118327  0.75786327    -0.09980
C1114       C  0.72441527  0.96713146  0.77253685     0.06220
C1115       C  0.73054385  0.96028439  0.80310218    -0.03750
C1116       C  0.71542327  0.93621949  0.81735419    -0.08200
C1117       C  0.69437404  0.91822621  0.80157810     0.05330
C1118       C  0.68619954  0.92721916  0.77187149    -0.03220
Br1119     Br  0.65816438  0.90551695  0.74670820    -0.02920
H1120       H  0.69616229  0.95621052  0.73449699     0.09240
H1121       H  0.72216148  0.92990936  0.84009407     0.07260
Br1122     Br  0.76164122  0.98049340  0.82547365    -0.03340
C1123       C  0.77957982  0.93532653  0.69319319    -0.09980
C1124       C  0.80154298  0.91992743  0.71038910     0.06220
C1125       C  0.80959367  0.93208685  0.73886854    -0.03750
C1126       C  0.79297030  0.95625720  0.75085238    -0.08200
C1127       C  0.76788471  0.96833308  0.73549776     0.05330
C1128       C  0.76225393  0.95859920  0.70568792    -0.03220
Br1129     Br  0.72879683  0.97254871  0.68209291    -0.02920
H1130       H  0.77323779  0.92678719  0.67112796     0.09240
H1131       H  0.79809315  0.96386928  0.77350297     0.07260
Br1132     Br  0.83949430  0.91420955  0.76494244    -0.03340
C1133       C  0.74508123  0.70600012  0.55532493    -0.09980
C1134       C  0.72824034  0.72912978  0.54146199     0.06220
C1135       C  0.69777665  0.73287541  0.55009619    -0.03750
C1136       C  0.68590410  0.71587560  0.57413533    -0.08200
C1137       C  0.70413563  0.69574779  0.59089100     0.05330
C1138       C  0.73360230  0.68955558  0.57993453    -0.03220
Br1139     Br  0.76159079  0.66304822  0.60017536    -0.02920
H1140       H  0.76837957  0.70247900  0.54874167     0.09240
H1141       H  0.66319049  0.72092096  0.58185391     0.07260
Br1142     Br  0.67236245  0.76354080  0.53312649    -0.03340
C1143       C  0.74748272  0.79573030  0.55869865    -0.09980
C1144       C  0.76340152  0.77387020  0.54230697     0.06220
C1145       C  0.79440321  0.76956632  0.54842112    -0.03750
C1146       C  0.80805839  0.78529544  0.57229128    -0.08200
C1147       C  0.79122727  0.80509258  0.59066259     0.05330
C1148       C  0.76095543  0.81152123  0.58239249    -0.03220
Br1149     Br  0.73461359  0.83752312  0.60512709    -0.02920
H1150       H  0.72367225  0.79930603  0.55420871     0.09240
H1151       H  0.83122679  0.77987415  0.57827920     0.07260
Br1152     Br  0.81825842  0.74002706  0.52764265    -0.03340
C1153       C  0.68440166  0.73214422  0.43537539    -0.09980
C1154       C  0.69398203  0.70282737  0.42818477     0.06220
C1155       C  0.71523319  0.68852748  0.44743688    -0.03750
C1156       C  0.72889037  0.70489888  0.47092701    -0.08200
C1157       C  0.72235968  0.73571116  0.47505386     0.05330
C1158       C  0.69901187  0.74889389  0.45766245    -0.03220
Br1159     Br  0.68804303  0.79065839  0.46020381    -0.02920
H1160       H  0.66818541  0.74370366  0.42099655     0.09240
H1161       H  0.74657457  0.69429096  0.48425186     0.07260
Br1162     Br  0.72818853  0.64761524  0.44116247    -0.03340
C1163       C  0.93188478  0.81332123  0.28251302    -0.09980
C1164       C  0.91961220  0.80032239  0.30886252     0.06220
C1165       C  0.93477596  0.77520733  0.32177056    -0.03750
C1166       C  0.95718172  0.76025267  0.30529743    -0.08200
C1167       C  0.96627563  0.77070226  0.27674918     0.05330
C1168       C  0.95514727  0.79885812  0.26659826    -0.03220
Br1169     Br  0.96914126  0.81774475  0.23024531    -0.02920
H1170       H  0.92146519  0.83316371  0.27251903     0.09240
H1171       H  0.96602065  0.73925240  0.31412110     0.07260
Br1172     Br  0.92445285  0.75861281  0.36067262    -0.03340
C1173       C  0.78436011  0.81429241  0.44505353    -0.09980
C1174       C  0.80154118  0.79532458  0.42621566     0.06220
C1175       C  0.80450523  0.76453273  0.43449257    -0.03750
C1176       C  0.78720993  0.75282340  0.45820589    -0.08200
C1177       C  0.76727756  0.77103012  0.47481857     0.05330
C1178       C  0.76774077  0.80257856  0.46953468    -0.03220
Br1179     Br  0.74503175  0.83083059  0.49312229    -0.02920
H1180       H  0.78213758  0.83806060  0.43941242     0.09240
H1181       H  0.78794279  0.72869562  0.46249201     0.07260
Br1182     Br  0.82771763  0.73568132  0.41179423    -0.03340
C1183       C  0.93358467  0.71437633  0.19588436    -0.09980
C1184       C  0.91564412  0.69513059  0.21380652     0.06220
C1185       C  0.92512816  0.68917274  0.24380709    -0.03750
C1186       C  0.94942448  0.70524468  0.25608933    -0.08200
C1187       C  0.96495865  0.72733353  0.23931050     0.05330
C1188       C  0.95799912  0.73039386  0.20825201    -0.03220
Br1189     Br  0.97860343  0.75782555  0.18182859    -0.02920
H1190       H  0.92692950  0.71906669  0.17273008     0.09240
H1191       H  0.95487340  0.70179158  0.27970614     0.07260
Br1192     Br  0.90329144  0.66336925  0.27122212    -0.03340
C1193       C  0.72374598  0.81520086  0.07802445    -0.09980
C1194       C  0.69832949  0.80090786  0.09084094     0.06220
C1195       C  0.68623173  0.77541995  0.07568854    -0.03750
C1196       C  0.70230925  0.76215511  0.05192007    -0.08200
C1197       C  0.73011801  0.77391184  0.04228402     0.05330
C1198       C  0.73961333  0.80196146  0.05402503    -0.03220
Br1199     Br  0.77501218  0.82243963  0.03972156    -0.02920
H1200       H  0.73313392  0.83524394  0.08844654     0.09240
H1201       H  0.69386521  0.74141939  0.04227272     0.07260
Br1202     Br  0.64913946  0.75594607  0.08745605    -0.03340
C1203       C  0.79799068  0.74595799  0.05463323    -0.09980
C1204       C  0.77124721  0.73390595  0.04257113     0.06220
C1205       C  0.76196915  0.70497962  0.05234672    -0.03750
C1206       C  0.77754038  0.69032933  0.07571215    -0.08200
C1207       C  0.80145638  0.70455952  0.09113452     0.05330
C1208       C  0.81292779  0.73194360  0.07892597    -0.03220
Br1209     Br  0.84604339  0.75400543  0.09635604    -0.02920
H1210       H  0.80614424  0.76759009  0.04672217     0.09240
H1211       H  0.76860709  0.66905835  0.08406134     0.07260
Br1212     Br  0.72613357  0.68556572  0.03778705    -0.03340
C1213       C  0.81320392  0.72767802  0.94164485    -0.09980
C1214       C  0.80044879  0.70134362  0.92895092     0.06220
C1215       C  0.77541840  0.68824132  0.94397271    -0.03750
C1216       C  0.76056937  0.70438261  0.96682414    -0.08200
C1217       C  0.77066123  0.73302119  0.97600138     0.05330
C1218       C  0.79848155  0.74357589  0.96466633    -0.03220
Br1219     Br  0.81624025  0.78081291  0.97775025    -0.02920
H1220       H  0.83318177  0.73776520  0.93162772     0.09240
H1221       H  0.74003879  0.69510182  0.97607741     0.07260
Br1222     Br  0.75873631  0.64967289  0.93322352    -0.03340
C1223       C  0.68654550  0.77772536  0.94138376    -0.09980
C1224       C  0.69918692  0.80389504  0.92813848     0.06220
C1225       C  0.72415911  0.81734101  0.94295642    -0.03750
C1226       C  0.73896774  0.80166341  0.96634924    -0.08200
C1227       C  0.72916342  0.77294526  0.97580371     0.05330
C1228       C  0.70143933  0.76206723  0.96454572    -0.03220
Br1229     Br  0.68376897  0.72480647  0.97786601    -0.02920
H1230       H  0.66656186  0.76745129  0.93161484     0.09240
H1231       H  0.75930927  0.81125149  0.97582966     0.07260
Br1232     Br  0.74071601  0.85576259  0.93129143    -0.03340
C1233       C  0.74613115  0.30111575  0.55452492    -0.09980
C1234       C  0.73154415  0.27652644  0.54091547     0.06220
C1235       C  0.70168357  0.26964379  0.54988338    -0.03750
C1236       C  0.68835045  0.28536255  0.57385151    -0.08200
C1237       C  0.70456326  0.30724582  0.59021950     0.05330
C1238       C  0.73324785  0.31628097  0.57910122    -0.03220
Br1239     Br  0.75869990  0.34529415  0.59900423    -0.02920
H1240       H  0.76889990  0.30694950  0.54776573     0.09240
H1241       H  0.66628148  0.27813986  0.58175544     0.07260
Br1242     Br  0.67904369  0.23671939  0.53333897    -0.03340
C1243       C  0.75456624  0.20858897  0.55425436    -0.09980
C1244       C  0.76908672  0.23339020  0.54084812     0.06220
C1245       C  0.79920153  0.23974987  0.54920733    -0.03750
C1246       C  0.81281877  0.22345869  0.57279323    -0.08200
C1247       C  0.79677056  0.20109621  0.58886592     0.05330
C1248       C  0.76797463  0.19235119  0.57789851    -0.03220
Br1249     Br  0.74316098  0.16194224  0.59672014    -0.02920
H1250       H  0.73163769  0.20309177  0.54791184     0.09240
H1251       H  0.83501868  0.23040010  0.58054604     0.07260
Br1252     Br  0.82172232  0.27256993  0.53202351    -0.03340
C1253       C  0.76533898  0.96082543  0.30648014    -0.09980
C1254       C  0.77178883  0.96629050  0.27576507     0.06220
C1255       C  0.79534633  0.94973007  0.26219164    -0.03750
C1256       C  0.81048199  0.92745934  0.27854223    -0.08200
C1257       C  0.80045924  0.91805230  0.30734423     0.05330
C1258       C  0.77870216  0.93634187  0.32207307    -0.03220
Br1259     Br  0.76467987  0.92813792  0.36232416    -0.02920
H1260       H  0.74817216  0.97411556  0.31771540     0.09240
H1261       H  0.82780232  0.91486759  0.26668959     0.07260
Br1262     Br  0.80628024  0.95336761  0.22028543    -0.03340
C1263       C  0.73381046  0.96175607  0.20783509    -0.09980
C1264       C  0.72814240  0.96798709  0.23841275     0.06220
C1265       C  0.70346643  0.95342297  0.25244283    -0.03750
C1266       C  0.68878930  0.92946730  0.23789203    -0.08200
C1267       C  0.69845658  0.91937159  0.20934992     0.05330
C1268       C  0.71961279  0.93735021  0.19338894    -0.03220
Br1269     Br  0.73159247  0.92843615  0.15267719    -0.02920
H1270       H  0.75104068  0.97430820  0.19580973     0.09240
H1271       H  0.67183056  0.91687010  0.25036088     0.07260
Br1272     Br  0.68952430  0.96456060  0.29188859    -0.03340
C1273       C  0.70345959  0.04123783  0.24407658    -0.09980
C1274       C  0.73297868  0.03388986  0.23501586     0.06220
C1275       C  0.74454169  0.04748804  0.20857282    -0.03750
C1276       C  0.72864236  0.07101187  0.19444098    -0.08200
C1277       C  0.70115215  0.08164710  0.20634459     0.05330
C1278       C  0.68744516  0.06475637  0.22992107    -0.03220
Br1279     Br  0.64777989  0.07388464  0.24507270    -0.02920
H1280       H  0.69358573  0.03002328  0.26352371     0.09240
H1281       H  0.73943965  0.08292455  0.17589990     0.07260
Br1282     Br  0.78272192  0.03628178  0.19165549    -0.03340
C1283       C  0.72431285  0.31702257  0.43819046    -0.09980
C1284       C  0.69899752  0.30267640  0.42520496     0.06220
C1285       C  0.68683858  0.27717212  0.44035364    -0.03750
C1286       C  0.70320836  0.26335143  0.46359643    -0.08200
C1287       C  0.73051032  0.27550473  0.47400637     0.05330
C1288       C  0.73982236  0.30383413  0.46265558    -0.03220
Br1289     Br  0.77458858  0.32441316  0.47825462    -0.02920
H1290       H  0.73374013  0.33710713  0.42773690     0.09240
H1291       H  0.69531219  0.24192782  0.47222269     0.07260
Br1292     Br  0.64918681  0.25842311  0.42922528    -0.03340
C1293       C  0.92997247  0.18391987  0.28232499    -0.09980
C1294       C  0.91704678  0.20039978  0.30621394     0.06220
C1295       C  0.93243214  0.22681266  0.31595379    -0.03750
C1296       C  0.95631095  0.23864617  0.29870712    -0.08200
C1297       C  0.96618989  0.22437460  0.27219998     0.05330
C1298       C  0.95441992  0.19547865  0.26561644    -0.03220
Br1299     Br  0.96989104  0.17083251  0.23385049    -0.02920
H1300       H  0.91963642  0.16298678  0.27498401     0.09240
H1301       H  0.96611995  0.26010183  0.30518633     0.07260
Br1302     Br  0.92131404  0.24906652  0.35153004    -0.03340
C1303       C  0.77737384  0.19071251  0.44280604    -0.09980
C1304       C  0.80142785  0.20453151  0.42707317     0.06220
C1305       C  0.81298288  0.23209586  0.43845872    -0.03750
C1306       C  0.79753325  0.24713385  0.46155035    -0.08200
C1307       C  0.77111296  0.23515324  0.47437750     0.05330
C1308       C  0.76210157  0.20579143  0.46602960    -0.03220
Br1309     Br  0.72726375  0.18632071  0.48294097    -0.02920
H1310       H  0.76842432  0.16928156  0.43507426     0.09240
H1311       H  0.80526140  0.26930340  0.46807907     0.07260
Br1312     Br  0.84729917  0.25282666  0.42156430    -0.03340
C1313       C  0.75239893  0.04955934  0.30063000    -0.09980
C1314       C  0.76974286  0.03386996  0.27918477     0.06220
C1315       C  0.80101328  0.04056766  0.27745565    -0.03750
C1316       C  0.81300655  0.06499620  0.29365286    -0.08200
C1317       C  0.79462990  0.08320645  0.31194345     0.05330
C1318       C  0.76430507  0.07404944  0.31675849    -0.03220
Br1319     Br  0.73615709  0.09663869  0.34088509    -0.02920
H1320       H  0.72859632  0.04431587  0.30313593     0.09240
H1321       H  0.83642441  0.07131850  0.28998753     0.07260
Br1322     Br  0.82882477  0.01937531  0.25233865    -0.03340
C1323       C  0.93089513  0.27535564  0.19066435    -0.09980
C1324       C  0.91835779  0.29961452  0.20685871     0.06220
C1325       C  0.93374528  0.30948047  0.23321879    -0.03750
C1326       C  0.95713117  0.29192761  0.24545785    -0.08200
C1327       C  0.96637635  0.26503379  0.23159108     0.05330
C1328       C  0.95474451  0.25821762  0.20269837    -0.03220
Br1329     Br  0.96910998  0.22507156  0.17909549    -0.02920
H1330       H  0.92044112  0.26787051  0.16982370     0.09240
H1331       H  0.96687208  0.29842502  0.26693112     0.07260
Br1332     Br  0.92294679  0.34541267  0.25505908    -0.03340
C1333       C  0.70171904  0.24381952  0.05318129    -0.09980
C1334       C  0.72782506  0.23079728  0.04072937     0.06220
C1335       C  0.73562916  0.20116343  0.04970612    -0.03750
C1336       C  0.72006488  0.18713160  0.07345990    -0.08200
C1337       C  0.69698999  0.20225093  0.08922988     0.05330
C1338       C  0.68630244  0.23002482  0.07721411    -0.03220
Br1339     Br  0.65367839  0.25282541  0.09460057    -0.02920
H1340       H  0.69449855  0.26599924  0.04580135     0.09240
H1341       H  0.72813991  0.16541959  0.08156530     0.07260
Br1342     Br  0.76889378  0.17937102  0.03280275    -0.03340
C1343       C  0.81164736  0.28079279  0.07422885    -0.09980
C1344       C  0.79548246  0.30236515  0.09106562     0.06220
C1345       C  0.76666861  0.31137992  0.08021890    -0.03750
C1346       C  0.75341776  0.29607659  0.05593054    -0.08200
C1347       C  0.76802115  0.27183239  0.04165445     0.05330
C1348       C  0.79831176  0.26563651  0.04978775    -0.03220
Br1349     Br  0.82227182  0.23547128  0.03027000    -0.02920
H1350       H  0.83401423  0.27389612  0.08159065     0.09240
H1351       H  0.73058587  0.30204042  0.04946823     0.07260
Br1352     Br  0.74179394  0.34125376  0.09957648    -0.03340
C1353       C  0.74077796  0.20372056  0.96292053    -0.09980
C1354       C  0.72874265  0.23070141  0.97424426     0.06220
C1355       C  0.69977829  0.23971067  0.96410826    -0.03750
C1356       C  0.68591266  0.22461214  0.93987689    -0.08200
C1357       C  0.70016032  0.20002191  0.92570368     0.05330
C1358       C  0.72653656  0.18796640  0.93954901    -0.03220
Br1359     Br  0.74597866  0.15134561  0.92647414    -0.02920
H1360       H  0.76237961  0.19560680  0.97098980     0.09240
H1361       H  0.66521418  0.23386666  0.93050959     0.07260
Br1362     Br  0.67863818  0.27333649  0.98102208    -0.03340
C1363       C  0.79543457  0.25371208  0.96062587    -0.09980
C1364       C  0.77144044  0.26915911  0.97450488     0.06220
C1365       C  0.76678915  0.29978639  0.96677613    -0.03750
C1366       C  0.78312251  0.31278774  0.94287207    -0.08200
C1367       C  0.80430639  0.29588004  0.92624315     0.05330
C1368       C  0.81203440  0.26672969  0.93699759    -0.03220
Br1369     Br  0.84170080  0.24135714  0.91800931    -0.02920
H1370       H  0.80015808  0.23051913  0.96682367     0.09240
H1371       H  0.77721066  0.33542609  0.93547316     0.07260
Br1372     Br  0.73690531  0.32450888  0.98583774    -0.03340
C1373       C  0.70855461  0.45032761  0.26103772    -0.09980
C1374       C  0.72865434  0.46686939  0.27913410     0.06220
C1375       C  0.72836264  0.46175392  0.31069305    -0.03750
C1376       C  0.71189923  0.43727490  0.32253090    -0.08200
C1377       C  0.69475618  0.41835069  0.30361835     0.05330
C1378       C  0.69143350  0.42658987  0.27288046    -0.03220
Br1379     Br  0.66824814  0.40352278  0.24430316    -0.02920
H1380       H  0.70774084  0.45451575  0.23688275     0.09240
H1381       H  0.71436810  0.43159008  0.34627857     0.07260
Br1382     Br  0.75128989  0.48550269  0.33866782    -0.03340
C1383       C  0.76708604  0.46128156  0.21319082    -0.09980
C1384       C  0.77367246  0.46577058  0.24398051     0.06220
C1385       C  0.79674344  0.44812657  0.25736892    -0.03750
C1386       C  0.81114789  0.42552187  0.24082026    -0.08200
C1387       C  0.80173415  0.41826857  0.21144170     0.05330
C1388       C  0.78052021  0.43747505  0.19703751    -0.03220
Br1389     Br  0.76751448  0.43088551  0.15617623    -0.02920
H1390       H  0.74956140  0.47467114  0.20240980     0.09240
H1391       H  0.82722252  0.41109723  0.25251514     0.07260
Br1392     Br  0.80767511  0.45079599  0.29915091    -0.03340
C1393       C  0.75349484  0.54545113  0.21321454    -0.09980
C1394       C  0.76943885  0.53203485  0.23720570     0.06220
C1395       C  0.79988748  0.54028957  0.24174551    -0.03750
C1396       C  0.81253005  0.56383661  0.22472092    -0.08200
C1397       C  0.79497062  0.58050451  0.20397538     0.05330
C1398       C  0.76571252  0.56965367  0.19679254    -0.03220
Br1399     Br  0.73883739  0.58975983  0.16905340    -0.02920
H1400       H  0.73027038  0.53897603  0.20902773     0.09240
H1401       H  0.83511623  0.57151121  0.23041284     0.07260
Br1402     Br  0.82410698  0.52372715  0.27358946    -0.03340
C1403       C  0.74856972  0.55114776  0.30292842    -0.09980
C1404       C  0.73305513  0.53448607  0.28094707     0.06220
C1405       C  0.70230636  0.54117922  0.27557253    -0.03750
C1406       C  0.68852182  0.56552261  0.29057731    -0.08200
C1407       C  0.70485628  0.58372434  0.31097561     0.05330
C1408       C  0.73495838  0.57524170  0.31806810    -0.03220
Br1409     Br  0.76098472  0.59799305  0.34439682    -0.02920
H1410       H  0.77222300  0.54646245  0.30720574     0.09240
H1411       H  0.66556870  0.57168287  0.28448870     0.07260
Br1412     Br  0.67897551  0.52019519  0.24574847    -0.03340
C1413       C  0.25422949  0.54740935  0.71709083    -0.09980
C1414       C  0.27053538  0.53298446  0.74031163     0.06220
C1415       C  0.30178322  0.53935182  0.74278859    -0.03750
C1416       C  0.31427918  0.56358550  0.72646317    -0.08200
C1417       C  0.29654717  0.58115002  0.70665564     0.05330
C1418       C  0.26690542  0.57099729  0.70008032    -0.03220
Br1419     Br  0.24072703  0.59062826  0.67138052    -0.02920
H1420       H  0.23067876  0.54170655  0.71349653     0.09240
H1421       H  0.33746742  0.57015274  0.73100009     0.07260
Br1422     Br  0.32870004  0.51715142  0.76845475    -0.03340
C1423       C  0.22636534  0.57393837  0.82145106    -0.09980
C1424       C  0.19968150  0.58493431  0.80794970     0.06220
C1425       C  0.18730669  0.56816063  0.78357365    -0.03750
C1426       C  0.20319273  0.54312081  0.77196099    -0.08200
C1427       C  0.23222725  0.53561963  0.78270992     0.05330
C1428       C  0.24355805  0.55141667  0.80788542    -0.03220
Br1429     Br  0.28409687  0.54711521  0.82270704    -0.02920
H1430       H  0.23638904  0.58569522  0.84043796     0.09240
H1431       H  0.19410463  0.53127103  0.75257432     0.07260
Br1432     Br  0.15098252  0.57977567  0.76268033    -0.03340
C1433       C  0.94821239  0.29112349  0.75633394    -0.09980
C1434       C  0.96563236  0.26970602  0.77212428     0.06220
C1435       C  0.96115343  0.26684265  0.80369010    -0.03750
C1436       C  0.93747512  0.28261107  0.81773269    -0.08200
C1437       C  0.91814812  0.30170531  0.80113293     0.05330
C1438       C  0.92498751  0.30723953  0.77036385    -0.03220
Br1439     Br  0.90100722  0.33282268  0.74451254    -0.02920
H1440       H  0.95174016  0.29441606  0.73232283     0.09240
H1441       H  0.93270196  0.27814884  0.84138175     0.07260
Br1442     Br  0.98435120  0.24031128  0.82891822    -0.03340
C1443       C  0.95730985  0.23822125  0.70498266    -0.09980
C1444       C  0.96691749  0.22768118  0.73337542     0.06220
C1445       C  0.95524142  0.20008349  0.74416162    -0.03750
C1446       C  0.93131076  0.18615026  0.72901518    -0.08200
C1447       C  0.91774548  0.19975265  0.70356164     0.05330
C1448       C  0.93290113  0.22459711  0.68996420    -0.03220
Br1449     Br  0.92009177  0.24319734  0.65278050    -0.02920
H1450       H  0.96714324  0.25863791  0.69562279     0.09240
H1451       H  0.92122267  0.16626079  0.73925402     0.07260
Br1452     Br  0.96890327  0.18152160  0.78085896    -0.03340
C1453       C  0.07050123  0.22795896  0.69052943    -0.09980
C1454       C  0.08170248  0.20044847  0.70204833     0.06220
C1455       C  0.06488489  0.18590160  0.72516676    -0.03750
C1456       C  0.04100614  0.20114387  0.73940923    -0.08200
C1457       C  0.03294937  0.23063247  0.73078472     0.05330
C1458       C  0.04646887  0.24301002  0.70466216    -0.03220
Br1459     Br  0.03451801  0.28128942  0.68833676    -0.02920
H1460       H  0.08229512  0.23942312  0.67232205     0.09240
H1461       H  0.03026219  0.19072988  0.75878325     0.07260
Br1462     Br  0.07455081  0.14610819  0.73976330    -0.03340
C1463       C  0.30932585  0.42561272  0.74340872    -0.09980
C1464       C  0.30160593  0.42046439  0.71306631     0.06220
C1465       C  0.28161478  0.44090692  0.69867649    -0.03750
C1466       C  0.26769469  0.46394965  0.71546199    -0.08200
C1467       C  0.27277495  0.46658173  0.74675289     0.05330
C1468       C  0.29455323  0.44763203  0.76040308    -0.03220
Br1469     Br  0.30355145  0.44862618  0.80275808    -0.02920
H1470       H  0.32440196  0.41015912  0.75511869     0.09240
H1471       H  0.25111635  0.47837908  0.70453042     0.07260
Br1472     Br  0.27112085  0.43715323  0.65675230    -0.03340
C1473       C  0.22360100  0.31600871  0.93833627    -0.09980
C1474       C  0.20006400  0.29954594  0.92461940     0.06220
C1475       C  0.19003952  0.27273439  0.93942468    -0.03750
C1476       C  0.20635889  0.26100708  0.96394324    -0.08200
C1477       C  0.23245086  0.27530913  0.97470064     0.05330
C1478       C  0.23972773  0.30415076  0.96309047    -0.03220
Br1479     Br  0.27279716  0.32737251  0.97843088    -0.02920
H1480       H  0.23139967  0.33693432  0.92818740     0.09240
H1481       H  0.19982429  0.23930145  0.97325858     0.07260
Br1482     Br  0.15610623  0.24884802  0.92626453    -0.03340
C1483       C  0.20849392  0.43639171  0.82213993    -0.09980
C1484       C  0.19288466  0.41753396  0.80203478     0.06220
C1485       C  0.19078943  0.42667573  0.77139135    -0.03750
C1486       C  0.20733806  0.45168917  0.76109323    -0.08200
C1487       C  0.22655351  0.46799844  0.78043070     0.05330
C1488       C  0.22497771  0.46150475  0.81179775    -0.03220
Br1489     Br  0.24610617  0.48364087  0.84209165    -0.02920
H1490       H  0.20994929  0.43009123  0.84582336     0.09240
H1491       H  0.20737840  0.45667118  0.73707244     0.07260
Br1492     Br  0.17040943  0.40326985  0.74104040    -0.03340
C1493       C  0.06093721  0.31137677  0.79147208    -0.09980
C1494       C  0.08009439  0.29340561  0.80947747     0.06220
C1495       C  0.07301419  0.26246340  0.81314606    -0.03750
C1496       C  0.05017627  0.24957104  0.79568493    -0.08200
C1497       C  0.03323961  0.26681183  0.77505082     0.05330
C1498       C  0.03749139  0.29847168  0.77448754    -0.03220
Br1499     Br  0.01445536  0.32525797  0.74933612    -0.02920
H1500       H  0.06590969  0.33520657  0.78853260     0.09240
H1501       H  0.04661156  0.22540008  0.79723293     0.07260
Br1502     Br  0.09643294  0.23505687  0.83760215    -0.03340
C1503       C  0.28032066  0.19209740  0.94133127    -0.09980
C1504       C  0.30133560  0.20734738  0.92284056     0.06220
C1505       C  0.31066334  0.23671348  0.93148605    -0.03750
C1506       C  0.29708721  0.25081216  0.95617558    -0.08200
C1507       C  0.27422246  0.23668858  0.97297099     0.05330
C1508       C  0.26668258  0.20648883  0.96608915    -0.03220
Br1509     Br  0.23562050  0.18490171  0.98728396    -0.02920
H1510       H  0.27266762  0.16969630  0.93510077     0.09240
H1511       H  0.30317004  0.27393437  0.96105571     0.07260
Br1512     Br  0.33787319  0.26154624  0.90823156    -0.03340
C1513       C  0.24209601  0.04471123  0.71076210    -0.09980
C1514       C  0.22970529  0.03401389  0.73784760     0.06220
C1515       C  0.20083718  0.04448522  0.74650849    -0.03750
C1516       C  0.18721266  0.06841895  0.73063133    -0.08200
C1517       C  0.20187253  0.08220756  0.70593226     0.05330
C1518       C  0.22835314  0.06809678  0.69446933    -0.03220
Br1519     Br  0.24899570  0.08091704  0.65830045    -0.02920
H1520       H  0.26366109  0.03623962  0.70310663     0.09240
H1521       H  0.16649401  0.07801358  0.73948459     0.07260
Br1522     Br  0.17986796  0.02867438  0.78097416    -0.03340
C1523       C  0.25640134  0.04801548  0.80494589    -0.09980
C1524       C  0.26939733  0.03498626  0.77919338     0.06220
C1525       C  0.29860321  0.04453807  0.77044706    -0.03750
C1526       C  0.31272990  0.06839790  0.78561688    -0.08200
C1527       C  0.29788698  0.08426362  0.80876500     0.05330
C1528       C  0.26995760  0.07262354  0.81952211    -0.03220
Br1529     Br  0.24628091  0.09147852  0.85066291    -0.02920
H1530       H  0.23433127  0.04064994  0.81241838     0.09240
H1531       H  0.33423466  0.07656323  0.77710326     0.07260
Br1532     Br  0.31922189  0.02896721  0.73580634    -0.03340
C1533       C  0.20348979  0.95613010  0.74847116    -0.09980
C1534       C  0.23112104  0.96753586  0.73783880     0.06220
C1535       C  0.24189557  0.95730145  0.70967828    -0.03750
C1536       C  0.22722673  0.93350660  0.69491432    -0.08200
C1537       C  0.20194145  0.91901176  0.70782599     0.05330
C1538       C  0.18868280  0.93232982  0.73374763    -0.03220
Br1539     Br  0.15229245  0.91767908  0.75249708    -0.02920
H1540       H  0.19422704  0.96437438  0.76945864     0.09240
H1541       H  0.23739784  0.92455190  0.67453344     0.07260
Br1542     Br  0.27785164  0.97287127  0.69120599    -0.03340
C1543       C  0.27605977  0.93264879  0.82118050    -0.09980
C1544       C  0.30224316  0.92029660  0.80794189     0.06220
C1545       C  0.31520019  0.93576742  0.78306768    -0.03750
C1546       C  0.29899471  0.95877036  0.76860496    -0.08200
C1547       C  0.27074424  0.96822808  0.77934718     0.05330
C1548       C  0.26046581  0.95657388  0.80722830    -0.03220
Br1549     Br  0.22421181  0.97082380  0.82611212    -0.02920
H1550       H  0.26598228  0.92192648  0.84080698     0.09240
H1551       H  0.30784885  0.96786860  0.74779459     0.07260
Br1552     Br  0.35383601  0.92523910  0.76613301    -0.03340
C1553       C  0.30031542  0.26482766  0.46716420    -0.09980
C1554       C  0.27047777  0.27314652  0.47430539     0.06220
C1555       C  0.25839404  0.29929900  0.46077780    -0.03750
C1556       C  0.27429810  0.31385205  0.43769742    -0.08200
C1557       C  0.30146881  0.30173152  0.42619718     0.05330
C1558       C  0.31583753  0.27865057  0.44312238    -0.03220
Br1559     Br  0.35507832  0.26296121  0.43323312    -0.02920
H1560       H  0.31085657  0.24604884  0.47881206     0.09240
H1561       H  0.26334421  0.33264357  0.42630298     0.07260
Br1562     Br  0.21910836  0.31470159  0.47048147    -0.03340
C1563       C  0.20197849  0.23825925  0.46626758    -0.09980
C1564       C  0.23195482  0.23039454  0.47359631     0.06220
C1565       C  0.24437940  0.20444925  0.46006937    -0.03750
C1566       C  0.22846590  0.18938701  0.43732972    -0.08200
C1567       C  0.20055090  0.20033766  0.42628462     0.05330
C1568       C  0.18623940  0.22363136  0.44284556    -0.03220
Br1569     Br  0.14631653  0.23809803  0.43368132    -0.02920
H1570       H  0.19130364  0.25711249  0.47749681     0.09240
H1571       H  0.23966018  0.17070258  0.42618597     0.07260
Br1572     Br  0.28385482  0.18940939  0.46970207    -0.03340
C1573       C  0.23251537  0.18933731  0.57812899    -0.09980
C1574       C  0.20276571  0.19687533  0.58632437     0.06220
C1575       C  0.18653659  0.21716777  0.56762960    -0.03750
C1576       C  0.20153525  0.23271401  0.54439509    -0.08200
C1577       C  0.23275514  0.22899806  0.53993596     0.05330
C1578       C  0.24771697  0.20554859  0.55563512    -0.03220
Br1579     Br  0.28957054  0.19612345  0.54954989    -0.02920
H1580       H  0.24538787  0.17342565  0.59170378     0.09240
H1581       H  0.18921386  0.24947115  0.53145354     0.07260
Br1582     Br  0.14468424  0.22650230  0.57447701    -0.03340
C1583       C  0.26636629  0.31384814  0.58005670    -0.09980
C1584       C  0.29619937  0.30670613  0.58842361     0.06220
C1585       C  0.31271525  0.28678404  0.56971937    -0.03750
C1586       C  0.29816447  0.27166262  0.54592530    -0.08200
C1587       C  0.26699529  0.27530127  0.54077614     0.05330
C1588       C  0.25162322  0.29811674  0.55691994    -0.03220
Br1589     Br  0.20986971  0.30765754  0.55025339    -0.02920
H1590       H  0.25319752  0.32929965  0.59372171     0.09240
H1591       H  0.31082198  0.25529110  0.53297665     0.07260
Br1592     Br  0.35454576  0.27763684  0.57701728    -0.03340
C1593       C  0.45930421  0.20694336  0.76920836    -0.09980
C1594       C  0.46619184  0.23662097  0.77821916     0.06220
C1595       C  0.45149764  0.24821966  0.80396222    -0.03750
C1596       C  0.42920270  0.23127181  0.81849494    -0.08200
C1597       C  0.41835777  0.20400677  0.80621275     0.05330
C1598       C  0.43510381  0.19088707  0.78230940    -0.03220
Br1599     Br  0.42461399  0.15292027  0.76424071    -0.02920
H1600       H  0.47122865  0.19703083  0.75035737     0.09240
H1601       H  0.41763871  0.24161668  0.83742459     0.07260
Br1602     Br  0.45712828  0.28853258  0.81855049    -0.03340
C1603       C  0.45743816  0.30405964  0.74305166    -0.09980
C1604       C  0.46698587  0.27492387  0.73524452     0.06220
C1605       C  0.45489841  0.26190122  0.70876644    -0.03750
C1606       C  0.43031683  0.27567529  0.69394104    -0.08200
C1607       C  0.41778132  0.30281133  0.70479467     0.05330
C1608       C  0.43363787  0.31832197  0.72781108    -0.03220
Br1609     Br  0.42246380  0.35800319  0.74147340    -0.02920
H1610       H  0.46688841  0.31515192  0.76244954     0.09240
H1611       H  0.41935647  0.26364245  0.67567298     0.07260
Br1612     Br  0.47008771  0.22472124  0.69271550    -0.03340
C1613       C  0.54696127  0.26037061  0.71274515    -0.09980
C1614       C  0.53389279  0.27546342  0.73738174     0.06220
C1615       C  0.54300502  0.30553780  0.74301790    -0.03750
C1616       C  0.56721179  0.31811664  0.72690620    -0.08200
C1617       C  0.58336133  0.30122506  0.70544079     0.05330
C1618       C  0.57154348  0.27271457  0.69691769    -0.03220
Br1619     Br  0.59004213  0.24714007  0.66715532    -0.02920
H1620       H  0.53955666  0.23776265  0.70716256     0.09240
H1621       H  0.57529591  0.34031826  0.73333675     0.07260
Br1622     Br  0.52578321  0.33029670  0.77387926    -0.03340
C1623       C  0.54273427  0.20814010  0.76583119    -0.09980
C1624       C  0.53280212  0.23537090  0.77880878     0.06220
C1625       C  0.54387363  0.24286231  0.80777814    -0.03750
C1626       C  0.56652220  0.22538503  0.82130062    -0.08200
C1627       C  0.58025453  0.20126580  0.80593265     0.05330
C1628       C  0.56650335  0.19132302  0.77874298    -0.03220
Br1629     Br  0.58093304  0.15741339  0.75591669    -0.02920
H1630       H  0.53360272  0.20110635  0.74424761     0.09240
H1631       H  0.57582331  0.23297488  0.84265937     0.07260
Br1632     Br  0.53213470  0.27808167  0.82949839    -0.03340
C1633       C  0.44880799  0.75042294  0.21799684    -0.09980
C1634       C  0.46540145  0.76844108  0.23819736     0.06220
C1635       C  0.45955038  0.79992206  0.23824407    -0.03750
C1636       C  0.43512127  0.81166296  0.22173340    -0.08200
C1637       C  0.41602179  0.79282358  0.20492605     0.05330
C1638       C  0.42422320  0.76208678  0.20169065    -0.03220
Br1639     Br  0.40002376  0.73337045  0.17990093    -0.02920
H1640       H  0.45333140  0.72639379  0.21680089     0.09240
H1641       H  0.42939598  0.83536411  0.22418535     0.07260
Br1642     Br  0.48156097  0.82855605  0.26163953    -0.03340
C1643       C  0.45865617  0.70303983  0.27612464    -0.09980
C1644       C  0.46522806  0.73313847  0.28358973     0.06220
C1645       C  0.45103340  0.74585481  0.30905703    -0.03750
C1646       C  0.42772608  0.73024719  0.32375328    -0.08200
C1647       C  0.41785163  0.70196371  0.31326876     0.05330
C1648       C  0.43532807  0.68733487  0.29083615    -0.03220
Br1649     Br  0.42705065  0.64679030  0.27783990    -0.02920
H1650       H  0.47026187  0.69240903  0.25741815     0.09240
H1651       H  0.41527288  0.74180459  0.34136431     0.07260
Br1652     Br  0.46101379  0.78524759  0.32365000    -0.03340
C1653       C  0.53727879  0.73252315  0.31035235    -0.09980
C1654       C  0.53084875  0.72689558  0.27983714     0.06220
C1655       C  0.54497222  0.70199413  0.26591152    -0.03750
C1656       C  0.56907142  0.68725592  0.28034623    -0.08200
C1657       C  0.57962331  0.69711794  0.30864189     0.05330
C1658       C  0.56177115  0.71825705  0.32470360    -0.03220
Br1659     Br  0.57117433  0.73053874  0.36524480    -0.02920
H1660       H  0.52484987  0.74978859  0.32234845     0.09240
H1661       H  0.58148574  0.67023521  0.26790555     0.07260
Br1662     Br  0.53304556  0.68787370  0.22676690    -0.03340
C1663       C  0.57151837  0.80999296  0.24066231    -0.09980
C1664       C  0.58129462  0.80025479  0.21199541     0.06220
C1665       C  0.56373998  0.77791737  0.19716167    -0.03750
C1666       C  0.53926049  0.76424585  0.21235119    -0.08200
C1667       C  0.53316101  0.77078419  0.24283548     0.05330
C1668       C  0.54930760  0.79446878  0.25668836    -0.03220
Br1669     Br  0.54487107  0.80533403  0.29849300    -0.02920
H1670       H  0.58371163  0.82754597  0.25257955     0.09240
H1671       H  0.52648043  0.74677408  0.20101686     0.07260
Br1672     Br  0.57325620  0.76279940  0.15765469    -0.03340
C1673       C  0.46176137  0.27104142  0.30048987    -0.09980
C1674       C  0.46503950  0.27687342  0.26935711     0.06220
C1675       C  0.44665633  0.29949308  0.25611344    -0.03750
C1676       C  0.42391783  0.31336217  0.27305581    -0.08200
C1677       C  0.41778740  0.30430621  0.30289192     0.05330
C1678       C  0.43810648  0.28411807  0.31714075    -0.03220
Br1679     Br  0.43345730  0.27220016  0.35865021    -0.02920
H1680       H  0.47623744  0.25456613  0.31145274     0.09240
H1681       H  0.40883537  0.32898271  0.26158438     0.07260
Br1682     Br  0.44959474  0.31161426  0.21453734    -0.03340
C1683       C  0.45835872  0.23893874  0.20244213    -0.09980
C1684       C  0.46661718  0.23301312  0.23253058     0.06220
C1685       C  0.45416416  0.20747654  0.24691561    -0.03750
C1686       C  0.43043255  0.19176386  0.23323137    -0.08200
C1687       C  0.41792240  0.20157039  0.20551446     0.05330
C1688       C  0.43406662  0.22370639  0.18885985    -0.03220
Br1689     Br  0.42301665  0.23626609  0.14873095    -0.02920
H1690       H  0.46919259  0.25701473  0.19010352     0.09240
H1691       H  0.41976002  0.17374969  0.24602008     0.07260
Br1692     Br  0.46686918  0.19446032  0.28635609    -0.03340
C1693       C  0.54314733  0.20552137  0.24813872    -0.09980
C1694       C  0.53282941  0.23251734  0.23479231     0.06220
C1695       C  0.54419020  0.24050626  0.20610244    -0.03750
C1696       C  0.56787470  0.22393046  0.19331657    -0.08200
C1697       C  0.58171285  0.19985246  0.20903914     0.05330
C1698       C  0.56747423  0.18928692  0.23577441    -0.03220
Br1699     Br  0.58181933  0.15521114  0.25870987    -0.02920
H1700       H  0.53371140  0.19805808  0.26944753     0.09240
H1701       H  0.57756905  0.23203548  0.17228167     0.07260
Br1702     Br  0.53086181  0.27561656  0.18446352    -0.03340
C1703       C  0.54447289  0.25664946  0.30086367    -0.09980
C1704       C  0.53161526  0.27221222  0.27626092     0.06220
C1705       C  0.53969026  0.30277337  0.27186380    -0.03750
C1706       C  0.56330053  0.31538798  0.28871700    -0.08200
C1707       C  0.57970990  0.29799880  0.30973763     0.05330
C1708       C  0.56848872  0.26899739  0.31740534    -0.03220
Br1709     Br  0.58742818  0.24285990  0.34663346    -0.02920
H1710       H  0.53736744  0.23379190  0.30590939     0.09240
H1711       H  0.57091230  0.33801165  0.28306325     0.07260
Br1712     Br  0.52185216  0.32804912  0.24165159    -0.03340
loop_ 
_geom_bond_atom_site_label_1 
_geom_bond_atom_site_label_2 
_geom_bond_distance 
_geom_bond_site_symmetry_2 
_ccdc_geom_bond_type 
C1            C2   1.362       .  D
C1         C1694   1.501       .  S
C1         C1704   1.500       .  S
C2         C1674   1.501       .  S
C2         C1684   1.496       .  S
C3            C4   1.361       .  D
C3         C1654   1.500       .  S
C3         C1667   1.494       .  S
C4         C1634   1.505       .  S
C4         C1644   1.496       .  S
C5            C6   1.365       .  D
C5         C1614   1.501       .  S
C5         C1624   1.505       .  S
C6         C1594   1.499       .  S
C6         C1604   1.501       .  S
C7            C8   1.360       .  D
C7         C1554   1.493       .  S
C7         C1564   1.502       .  S
C8         C1577   1.493       .  S
C8         C1587   1.502       .  S
C9           C10   1.360   1_565  D
C9         C1534   1.497       .  S
C9         C1547   1.494       .  S
C10        C1514   1.494       .  S
C10        C1524   1.497       .  S
Fe11         O27   2.074       .  S
Fe11         O17   2.088       .  S
Fe11         O24   2.076       .  S
Fe11         O16   2.045       .  S
Fe11         O22   1.950       .  S
Fe12         O15   2.052       .  S
Fe12         O19   2.060       .  S
Fe12         O23   2.044       .  S
Fe12         O28   2.074       .  S
Fe12         O22   1.935       .  S
Fe13         O31   2.092       .  S
Fe13         O18   2.042       .  S
Fe13         O25   2.056       .  S
Fe13         O14   2.080       .  S
Fe13         O22   1.949       .  S
O14          C21   1.271       .  A
O15          C29   1.267       .  A
O16          C21   1.266       .  A
O17          C20   1.278       .  A
O18          C30   1.266       .  A
O19          C32   1.272       .  A
C20          O25   1.270       .  A
C20        C1527   1.492       .  S
C21          C92   1.462       .  S
O23          C26   1.267       .  A
O24          C26   1.271       .  A
C26          C65   1.459       .  S
O27          C32   1.273       .  A
O28          C30   1.269       .  A
C29          O31   1.275       .  A
C29        C1504   1.487       .  S
C30          C52   1.457       .  S
C32        C1597   1.497       .  S
Fe33         O49   2.070       .  S
Fe33         O39   2.065       .  S
Fe33         O46   2.051       .  S
Fe33         O38   2.057       .  S
Fe33         O44   1.959       .  S
Fe34         O37   2.056       .  S
Fe34         O41   2.057       .  S
Fe34         O45   2.061       .  S
Fe34         O50   2.036       .  S
Fe34         O44   1.956       .  S
Fe35         O53   2.085       .  S
Fe35         O40   2.079       .  S
Fe35         O47   2.084       .  S
Fe35         O36   2.063       .  S
Fe35         O44   1.959       .  S
O36          C43   1.270       .  A
O37          C51   1.266       .  A
O38          C43   1.265       .  A
O39          C42   1.273       .  A
O40          C52   1.272       .  A
O41          C54   1.269       .  A
C42          O47   1.276       .  A
C42        C1484   1.488       .  S
C43          C74   1.460       .  S
O45          C48   1.265       .  A
O46          C48   1.267       .  A
C48          C96   1.457       .  S
O49          C54   1.272       .  A
O50          C52   1.265       .  A
C51          O53   1.276       .  A
C51        C1474   1.499       .  S
C54        C1494   1.478       .  S
Fe55         O71   2.074       .  S
Fe55         O61   2.078       .  S
Fe55         O68   2.058       .  S
Fe55         O60   2.076       .  S
Fe55         O66   1.961       .  S
Fe56         O59   2.077       .  S
Fe56         O63   2.072       .  S
Fe56         O67   2.062       .  S
Fe56         O72   2.056       .  S
Fe56         O66   1.962       .  S
Fe57         O75   2.058       .  S
Fe57         O62   2.064       .  S
Fe57         O69   2.060       .  S
Fe57         O58   2.040       .  S
Fe57         O66   1.954       .  S
O58          C65   1.265       .  A
O59          C73   1.271       .  A
O60          C65   1.270       .  A
O61          C64   1.274       .  A
O62          C74   1.266       .  A
O63          C76   1.276       .  A
C64          O69   1.269       .  A
C64        C1607   1.492       .  S
O67          C70   1.266       .  A
O68          C70   1.270       .  A
C70          C87   1.460       .  S
O71          C76   1.273       .  A
O72          C74   1.268       .  A
C73          O75   1.271       .  A
C73        C1464   1.484       .  S
C76        C1584   1.489       .  S
Fe77         O93   2.050       .  S
Fe77         O83   2.062       .  S
Fe77         O90   2.046       .  S
Fe77         O82   2.055       .  S
Fe77         O88   1.957       .  S
Fe78         O81   2.073       .  S
Fe78         O85   2.080       .  S
Fe78         O89   2.076       .  S
Fe78         O94   2.061       .  S
Fe78         O88   1.963       .  S
Fe79         O97   2.074       .  S
Fe79         O84   2.054       .  S
Fe79         O91   2.067       .  S
Fe79         O80   2.061       .  S
Fe79         O88   1.962       .  S
O80          C87   1.268       .  A
O81          C95   1.272       .  A
O82          C87   1.264       .  A
O83          C86   1.272       .  A
O84          C96   1.265       .  A
O85          C98   1.275       .  A
C86          O91   1.270       .  A
C86        C1574   1.482       .  S
O89          C92   1.270       .  A
O90          C92   1.266       .  A
O93          C98   1.266       .  A
O94          C96   1.270       .  A
C95          O97   1.276       .  A
C95        C1454   1.494       .  S
C98        C1517   1.493       .  S
C99         C100   1.361   1_655  D
C99        C1434   1.502       .  S
C99        C1444   1.494       .  S
C100       C1457   1.501       .  S
C100       C1497   1.494       .  S
C101        C102   1.367       .  D
C101       C1467   1.497       .  S
C101       C1487   1.509       .  S
C102       C1414   1.506       .  S
C102       C1427   1.496       .  S
C103        C104   1.363       .  D
C103       C1394   1.494       .  S
C103       C1404   1.495       .  S
C104       C1374   1.497       .  S
C104       C1384   1.500       .  S
C105        C106   1.363   1_556  D
C105       C1354   1.502       .  S
C105       C1364   1.499       .  S
C106       C1334   1.499       .  S
C106       C1347   1.503       .  S
Fe107       O123   2.085       .  S
Fe107       O113   2.071       .  S
Fe107       O120   2.049       .  S
Fe107       O112   2.079       .  S
Fe107       O118   1.954       .  S
Fe108       O111   2.081       .  S
Fe108       O115   2.062       .  S
Fe108       O119   2.078       .  S
Fe108       O124   2.059       .  S
Fe108       O118   1.950       .  S
Fe109       O127   2.062       .  S
Fe109       O114   2.060       .  S
Fe109       O121   2.065       .  S
Fe109       O110   2.044       .  S
Fe109       O118   1.948       .  S
O110        C117   1.267       .  A
O111        C125   1.273       .  A
O112        C117   1.272       .  A
O113        C116   1.273       .  A
O114        C126   1.265       .  A
O115        C128   1.271       .  A
C116        O121   1.268       .  A
C116       C1324   1.493       .  S
C117        C148   1.461       .  S
O119        C122   1.271       .  A
O120        C122   1.267       .  A
C122        C192   1.463       .  S
O123        C128   1.276       .  A
O124        C126   1.270       .  A
C125        O127   1.274       .  A
C125       C1387   1.486       .  S
C126        C166   1.456       .  S
C128       C1344   1.492       .  S
Fe129       O145   2.060       .  S
Fe129       O135   2.074       .  S
Fe129       O142   2.059       .  S
Fe129       O134   2.042       .  S
Fe129       O140   1.954       .  S
Fe130       O133   2.078       .  S
Fe130       O137   2.087       .  S
Fe130       O141   2.060       .  S
Fe130       O146   2.080       .  S
Fe130       O140   1.951       .  S
Fe131       O149   2.074       .  S
Fe131       O136   2.043       .  S
Fe131       O143   2.060       .  S
Fe131       O132   2.077       .  S
Fe131       O140   1.950       .  S
O132        C139   1.270       .  A
O133        C147   1.276       .  A
O134        C139   1.265       .  A
O135        C138   1.273       .  A
O136        C148   1.267       .  A
O137        C150   1.276       .  A
C138        O143   1.269       .  A
C138       C1304   1.490       .  S
C139        C161   1.461       .  S
O141        C144   1.270       .  A
O142        C144   1.265       .  A
C144        C183   1.457       .  S
O145        C150   1.271       .  A
O146        C148   1.271       .  A
C147        O149   1.271       .  A
C147       C1294   1.499       .  S
C150       C1317   1.488       .  S
Fe151       O167   2.079       .  S
Fe151       O157   2.072       .  S
Fe151       O164   2.059       .  S
Fe151       O156   2.078       .  S
Fe151       O162   1.954       .  S
Fe152       O155   2.071       .  S
Fe152       O159   2.061       .  S
Fe152       O163   2.060       .  S
Fe152       O168   2.044       .  S
Fe152       O162   1.950       .  S
Fe153       O171   2.061       .  S
Fe153       O158   2.073       .  S
Fe153       O165   2.066       .  S
Fe153       O154   2.043       .  S
Fe153       O162   1.947       .  S
O154        C161   1.266       .  A
O155        C169   1.272       .  A
O156        C161   1.270       .  A
O157        C160   1.274       .  A
O158        C170   1.270       .  A
O159        C172   1.271       .  A
C160        O165   1.271       .  A
C160       C1284   1.491       .  S
O163        C166   1.265       .  A
O164        C166   1.270       .  A
O167        C172   1.274       .  A
O168        C170   1.265       .  A
C169        O171   1.269       .  A
C169       C1707   1.486       .  S
C170        C188   1.459       .  S
C172       C1377   1.481       .  S
Fe173       O189   2.073       .  S
Fe173       O179   2.075       .  S
Fe173       O186   2.072       .  S
Fe173       O178   2.058       .  S
Fe173       O184   1.953       .  S
Fe174       O177   2.058       .  S
Fe174       O181   2.069       .  S
Fe174       O185   2.047       .  S
Fe174       O190   2.075       .  S
Fe174       O184   1.951       .  S
Fe175       O193   2.077       .  S
Fe175       O180   2.050       .  S
Fe175       O187   2.070       .  S
Fe175       O176   2.061       .  S
Fe175       O184   1.955       .  S
O176        C183   1.266       .  A
O177        C191   1.268       .  A
O178        C183   1.270       .  A
O179        C182   1.272       .  A
O180        C192   1.267       .  A
O181        C194   1.273       .  A
C182        O187   1.275       .  A
C182       C1277   1.491       .  S
O185        C188   1.267       .  A
O186        C188   1.269       .  A
O189        C194   1.273       .  A
O190        C192   1.270       .  A
C191        O193   1.273       .  A
C191       C1337   1.490       .  S
C194       C1697   1.496       .  S
C195        C196   1.363   1_545  D
C195       C1274   1.498       .  S
C195       C1314   1.506       .  S
C196       C1254   1.496       .  S
C196       C1264   1.502       .  S
C197        C198   1.359       .  D
C197       C1287   1.493       .  S
C197       C1307   1.494       .  S
C198       C1234   1.495       .  S
C198       C1244   1.493       .  S
C199        C200   1.360   1_556  D
C199       C1217   1.498       .  S
C199       C1227   1.497       .  S
C200       C1197   1.496       .  S
C200       C1204   1.496       .  S
Fe201       O217   2.071       .  S
Fe201       O207   2.065       .  S
Fe201       O214   2.039       .  S
Fe201       O206   2.067       .  S
Fe201       O212   1.955       .  S
Fe202       O205   2.075       .  S
Fe202       O209   2.064       .  S
Fe202       O213   2.079       .  S
Fe202       O218   2.052       .  S
Fe202       O212   1.955       .  S
Fe203       O221   2.065       .  S
Fe203       O208   2.060       .  S
Fe203       O215   2.064       .  S
Fe203       O204   2.049       .  S
Fe203       O212   1.954       .  S
O204        C211   1.267       .  A
O205        C219   1.274       .  A
O206        C211   1.268       .  A
O207        C210   1.270       .  A
O208        C220   1.266       .  A
O209        C222   1.270       .  A
C210        O215   1.271       .  A
C210       C1397   1.486       .  S
C211        C282   1.458       .  S
O213        C216   1.271       .  A
O214        C216   1.264       .  A
C216        C255   1.460       .  S
O217        C222   1.273       .  A
O218        C220   1.269       .  A
C219        O221   1.272       .  A
C219       C1184   1.486       .  S
C220        C242   1.455       .  S
C222       C1207   1.493       .  S
Fe223       O239   2.081       .  S
Fe223       O229   2.084       .  S
Fe223       O236   2.066       .  S
Fe223       O228   2.068       .  S
Fe223       O234   1.969       .  S
Fe224       O227   2.055       .  S
Fe224       O231   2.064       .  S
Fe224       O235   2.051       .  S
Fe224       O240   2.054       .  S
Fe224       O234   1.959       .  S
Fe225       O243   2.069       .  S
Fe225       O230   2.055       .  S
Fe225       O237   2.047       .  S
Fe225       O226   2.051       .  S
Fe225       O234   1.960       .  S
O226        C233   1.266       .  A
O227        C241   1.266       .  A
O228        C233   1.270       .  A
O229        C232   1.274       .  A
O230        C242   1.265       .  A
O231        C244   1.272       .  A
C232        O237   1.270       .  A
C232       C1257   1.500       .  S
C233        C264   1.462       .  S
O235        C238   1.263       .  A
O236        C238   1.269       .  A
C238        C286   1.460       .  S
O239        C244   1.275       .  A
O240        C242   1.268       .  A
C241        O243   1.271       .  A
C241       C1164   1.488       .  S
C244       C1174   1.486       .  S
Fe245       O261   2.069       .  S
Fe245       O251   2.070       .  S
Fe245       O258   2.065       .  S
Fe245       O250   2.048       .  S
Fe245       O256   1.956       .  S
Fe246       O249   2.065       .  S
Fe246       O253   2.062       .  S
Fe246       O257   2.057       .  S
Fe246       O262   2.065       .  S
Fe246       O256   1.946       .  S
Fe247       O265   2.084       .  S
Fe247       O252   2.056       .  S
Fe247       O259   2.071       .  S
Fe247       O248   2.071       .  S
Fe247       O256   1.955       .  S
O248        C255   1.269       .  A
O249        C263   1.273       .  A
O250        C255   1.267       .  A
O251        C254   1.271       .  A
O252        C264   1.268       .  A
O253        C266   1.273       .  A
C254        O259   1.275       .  A
C254       C1194   1.493       .  S
O257        C260   1.269       .  A
O258        C260   1.267       .  A
C260        C277   1.462       .  S
O261        C266   1.272       .  A
O262        C264   1.268       .  A
C263        O265   1.274       .  A
C263       C1267   1.491       .  S
C266       C1664   1.498       .  S
Fe267       O283   2.083       .  S
Fe267       O273   2.074       .  S
Fe267       O280   2.058       .  S
Fe267       O272   2.080       .  S
Fe267       O278   1.957       .  S
Fe268       O271   2.071       .  S
Fe268       O275   2.064       .  S
Fe268       O279   2.062       .  S
Fe268       O284   2.053       .  S
Fe268       O278   1.953       .  S
Fe269       O287   2.062       .  S
Fe269       O274   2.067       .  S
Fe269       O281   2.069       .  S
Fe269       O270   2.043       .  S
Fe269       O278   1.955       .  S
O270        C277   1.265       .  A
O271        C285   1.270       .  A
O272        C277   1.273       .  A
O273        C276   1.274       .  A
O274        C286   1.267       .  A
O275        C288   1.272       .  A
C276        O281   1.270       .  A
C276       C1657   1.490       .  S
O279        C282   1.266       .  A
O280        C282   1.269       .  A
O283        C288   1.275       .  A
O284        C286   1.269       .  A
C285        O287   1.272       .  A
C285       C1154   1.483       .  S
C288       C1407   1.490       .  S
C289        C290   1.362       .  D
C289       C1157   1.495       .  S
C289       C1177   1.501       .  S
C290       C1134   1.499       .  S
C290       C1144   1.489       .  S
C291        C292   1.363   1_565  D
C291       C1114   1.495       .  S
C291       C1127   1.498       .  S
C292       C1094   1.498       .  S
C292       C1104   1.500       .  S
Fe293       O309   2.088       .  S
Fe293       O299   2.066       .  S
Fe293       O306   2.049       .  S
Fe293       O298   2.074       .  S
Fe293       O304   1.960       .  S
Fe294       O297   2.057       .  S
Fe294       O301   2.060       .  S
Fe294       O305   2.067       .  S
Fe294       O310   2.058       .  S
Fe294       O304   1.948       .  S
Fe295       O313   2.081       .  S
Fe295       O300   2.060       .  S
Fe295       O307   2.073       .  S
Fe295       O296   2.051       .  S
Fe295       O304   1.953       .  S
O296        C303   1.267       .  A
O297        C311   1.267       .  A
O298        C303   1.270       .  A
O299        C302   1.271       .  A
O300        C312   1.267       .  A
O301        C314   1.270       .  A
C302        O307   1.275       .  A
C302       C1627   1.496       .  S
C303        C374   1.463       .  S
O305        C308   1.267       .  A
O306        C308   1.266       .  A
C308        C347   1.459       .  S
O309        C314   1.275       .  A
O310        C312   1.270       .  A
C311        O313   1.276       .  A
C311       C1357   1.494       .  S
C312        C325   1.455       .  S
C314       C1107   1.487       .  S
Fe315       O331   2.080       .  S
Fe315       O321   2.066       .  S
Fe315       O328   2.044       .  S
Fe315       O320   2.066       .  S
Fe315       O326   1.954       .  S
Fe316       O319   2.086       .  S
Fe316       O323   2.057       .  S
Fe316       O327   2.086       .  S
Fe316       O332   2.041       .  S
Fe316       O326   1.947       .  S
Fe317       O335   2.063       .  S
Fe317       O322   2.075       .  S
Fe317       O329   2.073       .  S
Fe317       O318   2.052       .  S
Fe317       O326   1.949       .  S
O318        C325   1.269       .  A
O319        C333   1.276       .  A
O320        C325   1.268       .  A
O321        C324   1.272       .  A
O322        C334   1.270       .  A
O323        C336   1.269       .  A
C324        O329   1.273       .  A
C324       C1367   1.488       .  S
O327        C330   1.272       .  A
O328        C330   1.266       .  A
C330        C356   1.464       .  S
O331        C336   1.273       .  A
O332        C334   1.266       .  A
C333        O335   1.271       .  A
C333       C1084   1.491       .  S
C334        C378   1.458       .  S
C336       C1437   1.484       .  S
Fe337       O353   2.058       .  S
Fe337       O343   2.052       .  S
Fe337       O350   2.058       .  S
Fe337       O342   2.046       .  S
Fe337       O348   1.948       .  S
Fe338       O341   2.064       .  S
Fe338       O345   2.075       .  S
Fe338       O349   2.057       .  S
Fe338       O354   2.073       .  S
Fe338       O348   1.956       .  S
Fe339       O357   2.077       .  S
Fe339       O344   2.053       .  S
Fe339       O351   2.075       .  S
Fe339       O340   2.072       .  S
Fe339       O348   1.954       .  S
O340        C347   1.271       .  A
O341        C355   1.272       .  A
O342        C347   1.266       .  A
O343        C346   1.270       .  A
O344        C356   1.267       .  A
O345        C358   1.273       .  A
C346        O351   1.271       .  A
C346       C1097   1.497       .  S
O349        C352   1.269       .  A
O350        C352   1.265       .  A
C352        C369   1.455       .  S
O353        C358   1.269       .  A
O354        C356   1.268       .  A
C355        O357   1.277       .  A
C355       C1447   1.494       .  S
C358       C1247   1.486       .  S
Fe359       O375   2.064       .  S
Fe359       O365   2.077       .  S
Fe359       O372   2.076       .  S
Fe359       O364   2.056       .  S
Fe359       O370   1.952       .  S
Fe360       O363   2.070       .  S
Fe360       O367   2.080       .  S
Fe360       O371   2.049       .  S
Fe360       O376   2.074       .  S
Fe360       O370   1.955       .  S
Fe361       O379   2.063       .  S
Fe361       O366   2.040       .  S
Fe361       O373   2.061       .  S
Fe361       O362   2.060       .  S
Fe361       O370   1.951       .  S
O362        C369   1.265       .  A
O363        C377   1.271       .  A
O364        C369   1.269       .  A
O365        C368   1.274       .  A
O366        C378   1.266       .  A
O367        C380   1.276       .  A
C368        O373   1.270       .  A
C368       C1237   1.489       .  S
O371        C374   1.266       .  A
O372        C374   1.270       .  A
O375        C380   1.272       .  A
O376        C378   1.271       .  A
C377        O379   1.271       .  A
C377       C1074   1.494       .  S
C380       C1617   1.491       .  S
C381        C382   1.362       .  D
C381       C1077   1.498       .  S
C381       C1087   1.502       .  S
C382       C1054   1.499       .  S
C382       C1067   1.499       .  S
Fe383       O399   2.074       .  S
Fe383       O389   2.080       .  S
Fe383       O396   2.057       .  S
Fe383       O388   2.060       .  S
Fe383       O394   1.968       .  S
Fe384       O387   2.073       .  S
Fe384       O391   2.069       .  S
Fe384       O395   2.065       .  S
Fe384       O400   2.052       .  S
Fe384       O394   1.966       .  S
Fe385       O403   2.063       .  S
Fe385       O390   2.056       .  S
Fe385       O397   2.054       .  S
Fe385       O386   2.052       .  S
Fe385       O394   1.960       .  S
O386        C393   1.268       .  A
O387        C401   1.272       .  A
O388        C393   1.266       .  A
O389        C392   1.274       .  A
O390        C402   1.266       .  A
O391        C404   1.275       .  A
C392        O397   1.269       .  A
C392       C1214   1.496       .  S
C393        C446   1.458       .  S
O395        C398   1.267       .  A
O396        C398   1.268       .  A
C398        C464   1.463       .  S
O399        C404   1.272       .  A
O400        C402   1.267       .  A
C401        O403   1.270       .  A
C401       C1044   1.490       .  S
C402        C415   1.455       .  S
C404       C1064   1.489       .  S
Fe405       O421   2.068       .  S
Fe405       O411   2.062       .  S
Fe405       O418   2.042       .  S
Fe405       O410   2.064       .  S
Fe405       O416   1.962       .  S
Fe406       O409   2.063       .  S
Fe406       O413   2.062       .  S
Fe406       O417   2.068       .  S
Fe406       O422   2.047       .  S
Fe406       O416   1.953       .  S
Fe407       O425   2.070       .  S
Fe407       O412   2.070       .  S
Fe407       O419   2.072       .  S
Fe407       O408   2.043       .  S
Fe407       O416   1.957       .  S
O408        C415   1.266       .  A
O409        C423   1.272       .  A
O410        C415   1.267       .  A
O411        C414   1.270       .  A
O412        C424   1.269       .  A
O413        C426   1.270       .  A
C414        O419   1.274       .  A
C414       C1034   1.486       .  S
O417        C420   1.268       .  A
O418        C420   1.266       .  A
C420        C459   1.456       .  S
O421        C426   1.271       .  A
O422        C424   1.267       .  A
C423        O425   1.271       .  A
C423       C1124   1.490       .  S
C424        C437   1.460       .  S
C426       C1147   1.483       .  S
Fe427       O443   2.061       .  S
Fe427       O433   2.064       .  S
Fe427       O440   2.056       .  S
Fe427       O432   2.059       .  S
Fe427       O438   1.964       .  S
Fe428       O431   2.056       .  S
Fe428       O435   2.072       .  S
Fe428       O439   2.057       .  S
Fe428       O444   2.054       .  S
Fe428       O438   1.965       .  S
Fe429       O447   2.078       .  S
Fe429       O434   2.056       .  S
Fe429       O441   2.071       .  S
Fe429       O430   2.055       .  S
Fe429       O438   1.974       .  S
O430        C437   1.267       .  A
O431        C445   1.271       .  A
O432        C437   1.266       .  A
O433        C436   1.270       .  A
O434        C446   1.265       .  A
O435        C448   1.273       .  A
C436        O441   1.272       .  A
C436       C1117   1.491       .  S
O439        C442   1.265       .  A
O440        C442   1.267       .  A
C442        C468   1.459       .  S
O443        C448   1.269       .  A
O444        C446   1.267       .  A
C445        O447   1.274       .  A
C445       C1224   1.497       .  S
C448       C1024   1.486       .  S
Fe449       O465   2.063       .  S
Fe449       O455   2.072       .  S
Fe449       O462   2.054       .  S
Fe449       O454   2.060       .  S
Fe449       O460   1.961       .  S
Fe450       O453   2.076       .  S
Fe450       O457   2.071       .  S
Fe450       O461   2.068       .  S
Fe450       O466   2.050       .  S
Fe450       O460   1.967       .  S
Fe451       O469   2.063       .  S
Fe451       O456   2.065       .  S
Fe451       O463   2.064       .  S
Fe451       O452   2.049       .  S
Fe451       O460   1.963       .  S
O452        C459   1.267       .  A
O453        C467   1.271       .  A
O454        C459   1.267       .  A
O455        C458   1.271       .  A
O456        C468   1.267       .  A
O457        C470   1.274       .  A
C458        O463   1.271       .  A
C458       C1137   1.492       .  S
O461        C464   1.267       .  A
O462        C464   1.267       .  A
O465        C470   1.271       .  A
O466        C468   1.267       .  A
C467        O469   1.272       .  A
C467       C1017   1.485       .  S
C470       C1057   1.485       .  S
C471        C472   1.359       .  D
C471       C1014   1.497       .  S
C471       C1027   1.497       .  S
C472        C994   1.500       .  S
C472       C1004   1.497       .  S
Fe473       O489   2.078       .  S
Fe473       O479   2.060       .  S
Fe473       O486   2.051       .  S
Fe473       O478   2.058       .  S
Fe473       O484   1.958       .  S
Fe474       O477   2.071       .  S
Fe474       O481   2.053       .  S
Fe474       O485   2.061       .  S
Fe474       O490   2.056       .  S
Fe474       O484   1.958       .  S
Fe475       O493   2.061       .  S
Fe475       O480   2.055       .  S
Fe475       O487   2.070       .  S
Fe475       O476   2.062       .  S
Fe475       O484   1.957       .  S
O476        C483   1.267       .  A
O477        C491   1.272       .  A
O478        C483   1.268       .  A
O479        C482   1.272       .  A
O480        C492   1.267       .  A
O481        C494   1.267       .  A
C482        O487   1.270       .  A
C482        C974   1.498       .  S
C483        C527   1.462       .  S
O485        C488   1.269       .  A
O486        C488   1.264       .  A
C488        C514   1.454       .  S
O489        C494   1.275       .  A
O490        C492   1.265       .  A
C491        O493   1.274       .  A
C491       C1424   1.498       .  S
C492        C549   1.458       .  S
C494        C984   1.493       .  S
Fe495       O511   2.055       .  S
Fe495       O501   2.079       .  S
Fe495       O508   2.079       .  S
Fe495       O500   2.050       .  S
Fe495       O506   1.949       .  S
Fe496       O499   2.082       .  S
Fe496       O503   2.090       .  S
Fe496       O507   2.046       .  S
Fe496       O512   2.062       .  S
Fe496       O506   1.965       .  S
Fe497       O515   2.055       .  S
Fe497       O502   2.053       .  S
Fe497       O509   2.063       .  S
Fe497       O498   2.074       .  S
Fe497       O506   1.942       .  S
O498        C505   1.269       .  A
O499        C513   1.275       .  A
O500        C505   1.267       .  A
O501        C504   1.274       .  A
O502        C514   1.270       .  A
O503        C516   1.275       .  A
C504        O509   1.270       .  A
C504       C1537   1.494       .  S
C505        C536   1.462       .  S
O507        C510   1.265       .  A
O508        C510   1.271       .  A
C510        C554   1.464       .  S
O511        C516   1.268       .  A
O512        C514   1.267       .  A
C513        O515   1.272       .  A
C513        C964   1.500       .  S
C516        C954   1.487       .  S
Fe517       O533   2.075       .  S
Fe517       O523   2.065       .  S
Fe517       O530   2.061       .  S
Fe517       O522   2.075       .  S
Fe517       O528   1.945       .  S
Fe518       O521   2.068       .  S
Fe518       O525   2.067       .  S
Fe518       O529   2.062       .  S
Fe518       O534   2.043       .  S
Fe518       O528   1.949       .  S
Fe519       O537   2.066       .  S
Fe519       O524   2.081       .  S
Fe519       O531   2.088       .  S
Fe519       O520   2.048       .  S
Fe519       O528   1.957       .  S
O520        C527   1.266       .  A
O521        C535   1.270       .  A
O522        C527   1.271       .  A
O523        C526   1.272       .  A
O524        C536   1.272       .  A
O525        C538   1.274       .  A
C526        O531   1.275       .  A
C526        C944   1.490       .  S
O529        C532   1.266       .  A
O530        C532   1.270       .  A
C532        C558   1.458       .  S
O533        C538   1.272       .  A
O534        C536   1.266       .  A
C535        O537   1.272       .  A
C535       C1544   1.489       .  S
C538       C1007   1.490       .  S
Fe539       O555   2.076       .  S
Fe539       O545   2.066       .  S
Fe539       O552   2.052       .  S
Fe539       O544   2.074       .  S
Fe539       O550   1.950       .  S
Fe540       O543   2.078       .  S
Fe540       O547   2.069       .  S
Fe540       O551   2.075       .  S
Fe540       O556   2.059       .  S
Fe540       O550   1.953       .  S
Fe541       O559   2.062       .  S
Fe541       O546   2.065       .  S
Fe541       O553   2.079       .  S
Fe541       O542   2.040       .  S
Fe541       O550   1.957       .  S
O542        C549   1.264       .  A
O543        C557   1.274       .  A
O544        C549   1.271       .  A
O545        C548   1.270       .  A
O546        C558   1.267       .  A
O547        C560   1.273       .  A
C548        O553   1.273       .  A
C548       C1417   1.490       .  S
O551        C554   1.269       .  A
O552        C554   1.268       .  A
O555        C560   1.275       .  A
O556        C558   1.270       .  A
C557        O559   1.271       .  A
C557        C997   1.485       .  S
C560        C934   1.497       .  S
C561        C562   1.365   1_655  D
C561       C1037   1.497       .  S
C561       C1047   1.498       .  S
C562        C967   1.502       .  S
C562        C987   1.497       .  S
C563        C564   1.370       .  D
C563        C937   1.506       .  S
C563        C957   1.493       .  S
C564        C914   1.506       .  S
C564        C924   1.534       .  S
C565        C566   1.362   1_655  D
C565       C1167   1.498       .  S
C565       C1187   1.500       .  S
C566        C894   1.500       .  S
C566        C904   1.500       .  S
Fe567       O583   2.082       .  S
Fe567       O573   2.066       .  S
Fe567       O580   2.048       .  S
Fe567       O572   2.086       .  S
Fe567       O578   1.955       .  S
Fe568       O571   2.079       .  S
Fe568       O575   2.059       .  S
Fe568       O579   2.068       .  S
Fe568       O584   2.037       .  S
Fe568       O578   1.953       .  S
Fe569       O587   2.060       .  S
Fe569       O574   2.066       .  S
Fe569       O581   2.066       .  S
Fe569       O570   2.034       .  S
Fe569       O578   1.952       .  S
O570        C577   1.264       .  A
O571        C585   1.273       .  A
O572        C577   1.273       .  A
O573        C576   1.270       .  A
O574        C586   1.267       .  A
O575        C588   1.272       .  A
C576        O581   1.272       .  A
C576        C874   1.493       .  S
C577        C604   1.460       .  S
O579        C582   1.267       .  A
O580        C582   1.267       .  A
C582        C626   1.457       .  S
O583        C588   1.276       .  A
O584        C586   1.266       .  A
C585        O587   1.270       .  A
C585        C884   1.486       .  S
C586        C652   1.450       .  S
C588       C1637   1.484       .  S
Fe589       O605   2.072       .  S
Fe589       O595   2.091       .  S
Fe589       O602   2.077       .  S
Fe589       O594   2.065       .  S
Fe589       O600   1.963       .  S
Fe590       O593   2.060       .  S
Fe590       O597   2.069       .  S
Fe590       O601   2.043       .  S
Fe590       O606   2.075       .  S
Fe590       O600   1.953       .  S
Fe591       O609   2.077       .  S
Fe591       O596   2.051       .  S
Fe591       O603   2.075       .  S
Fe591       O592   2.068       .  S
Fe591       O600   1.951       .  S
O592        C599   1.269       .  A
O593        C607   1.270       .  A
O594        C599   1.270       .  A
O595        C598   1.274       .  A
O596        C608   1.265       .  A
O597        C610   1.270       .  A
C598        O603   1.272       .  A
C598        C927   1.483       .  S
C599        C630   1.471       .  S
O601        C604   1.268       .  A
O602        C604   1.270       .  A
O605        C610   1.274       .  A
O606        C608   1.268       .  A
C607        O609   1.276       .  A
C607        C907   1.492       .  S
C608        C648   1.466       .  S
C610        C864   1.493       .  S
Fe611       O627   2.061       .  S
Fe611       O617   2.065       .  S
Fe611       O624   2.050       .  S
Fe611       O616   2.060       .  S
Fe611       O622   1.958       .  S
Fe612       O615   2.082       .  S
Fe612       O619   2.069       .  S
Fe612       O623   2.067       .  S
Fe612       O628   2.053       .  S
Fe612       O622   1.958       .  S
Fe613       O631   2.072       .  S
Fe613       O618   2.079       .  S
Fe613       O625   2.075       .  S
Fe613       O614   2.055       .  S
Fe613       O622   1.960       .  S
O614        C621   1.268       .  A
O615        C629   1.276       .  A
O616        C621   1.265       .  A
O617        C620   1.272       .  A
O618        C630   1.271       .  A
O619        C632   1.272       .  A
C620        O625   1.273       .  A
C620        C857   1.488       .  S
C621        C643   1.456       .  S
O623        C626   1.269       .  A
O624        C626   1.268       .  A
O627        C632   1.268       .  A
O628        C630   1.265       .  A
C629        O631   1.271       .  A
C629        C917   1.497       .  S
C632       C1647   1.488       .  S
Fe633       O649   2.075       .  S
Fe633       O639   2.079       .  S
Fe633       O646   2.053       .  S
Fe633       O638   2.060       .  S
Fe633       O644   1.963       .  S
Fe634       O637   2.073       .  S
Fe634       O641   2.064       .  S
Fe634       O645   2.076       .  S
Fe634       O650   2.058       .  S
Fe634       O644   1.958       .  S
Fe635       O653   2.068       .  S
Fe635       O640   2.045       .  S
Fe635       O647   2.048       .  S
Fe635       O636   2.054       .  S
Fe635       O644   1.954       .  S
O636        C643   1.268       .  A
O637        C651   1.273       .  A
O638        C643   1.266       .  A
O639        C642   1.276       .  A
O640        C652   1.263       .  A
O641        C654   1.270       .  A
C642        O647   1.266       .  A
C642        C834   1.490       .  S
O645        C648   1.270       .  A
O646        C648   1.267       .  A
O649        C654   1.273       .  A
O650        C652   1.268       .  A
C651        O653   1.272       .  A
C651        C844   1.492       .  S
C654        C897   1.491       .  S
C655        C656   1.365   1_554  D
C655        C847   1.501       .  S
C655        C887   1.494       .  S
C656        C947   1.502       .  S
C656        C977   1.498       .  S
C657        C658   1.360       .  D
C657        C837   1.496       .  S
C657        C854   1.498       .  S
C658        C814   1.499       .  S
C658        C824   1.497       .  S
C659        C660   1.364   1_556  D
C659       C1477   1.498       .  S
C659       C1507   1.494       .  S
C660        C794   1.502       .  S
C660        C804   1.498       .  S
C661        C662   1.360   1_565  D
C661        C867   1.496       .  S
C661        C877   1.497       .  S
C662        C774   1.497       .  S
C662        C784   1.498       .  S
Fe663       O679   2.053       .  S
Fe663       O669   2.051       .  S
Fe663       O676   2.052       .  S
Fe663       O668   2.074       .  S
Fe663       O674   1.941       .  S
Fe664       O667   2.083       .  S
Fe664       O671   2.077       .  S
Fe664       O675   2.067       .  S
Fe664       O680   2.045       .  S
Fe664       O674   1.956       .  S
Fe665       O683   2.059       .  S
Fe665       O670   2.080       .  S
Fe665       O677   2.087       .  S
Fe665       O666   2.049       .  S
Fe665       O674   1.952       .  S
O666        C673   1.267       .  A
O667        C681   1.273       .  A
O668        C673   1.269       .  A
O669        C672   1.267       .  A
O670        C682   1.271       .  A
O671        C684   1.274       .  A
C672        O677   1.275       .  A
C672        C827   1.483       .  S
C673        C726   1.461       .  S
O675        C678   1.267       .  A
O676        C678   1.269       .  A
C678        C700   1.456       .  S
O679        C684   1.270       .  A
O680        C682   1.267       .  A
C681        O683   1.272       .  A
C681       C1677   1.486       .  S
C682        C744   1.463       .  S
C684       C1557   1.493       .  S
Fe685       O701   2.062       .  S
Fe685       O691   2.073       .  S
Fe685       O698   2.060       .  S
Fe685       O690   2.067       .  S
Fe685       O696   1.954       .  S
Fe686       O689   2.090       .  S
Fe686       O693   2.079       .  S
Fe686       O697   2.058       .  S
Fe686       O702   2.052       .  S
Fe686       O696   1.963       .  S
Fe687       O705   2.054       .  S
Fe687       O692   2.072       .  S
Fe687       O699   2.063       .  S
Fe687       O688   2.053       .  S
Fe687       O696   1.950       .  S
O688        C695   1.268       .  A
O689        C703   1.274       .  A
O690        C695   1.268       .  A
O691        C694   1.273       .  A
O692        C704   1.269       .  A
O693        C706   1.276       .  A
C694        O699   1.271       .  A
C694        C777   1.496       .  S
C695        C748   1.461       .  S
O697        C700   1.266       .  A
O698        C700   1.270       .  A
O701        C706   1.273       .  A
O702        C704   1.266       .  A
C703        O705   1.270       .  A
C703        C764   1.488       .  S
C704        C722   1.464       .  S
C706       C1567   1.500       .  S
Fe707       O723   2.073       .  S
Fe707       O713   2.087       .  S
Fe707       O720   2.075       .  S
Fe707       O712   2.063       .  S
Fe707       O718   1.956       .  S
Fe708       O711   2.068       .  S
Fe708       O715   2.077       .  S
Fe708       O719   2.051       .  S
Fe708       O724   2.075       .  S
Fe708       O718   1.954       .  S
Fe709       O727   2.067       .  S
Fe709       O714   2.048       .  S
Fe709       O721   2.061       .  S
Fe709       O710   2.061       .  S
Fe709       O718   1.953       .  S
O710        C717   1.265       .  A
O711        C725   1.270       .  A
O712        C717   1.270       .  A
O713        C716   1.274       .  A
O714        C726   1.267       .  A
O715        C728   1.275       .  A
C716        O721   1.273       .  A
C716        C807   1.488       .  S
C717        C739   1.459       .  S
O719        C722   1.267       .  A
O720        C722   1.270       .  A
O723        C728   1.274       .  A
O724        C726   1.271       .  A
C725        O727   1.271       .  A
C725        C817   1.495       .  S
C728        C754   1.500       .  S
Fe729       O745   2.072       .  S
Fe729       O735   2.081       .  S
Fe729       O742   2.080       .  S
Fe729       O734   2.061       .  S
Fe729       O740   1.954       .  S
Fe730       O733   2.056       .  S
Fe730       O737   2.069       .  S
Fe730       O741   2.045       .  S
Fe730       O746   2.077       .  S
Fe730       O740   1.950       .  S
Fe731       O749   2.080       .  S
Fe731       O736   2.043       .  S
Fe731       O743   2.064       .  S
Fe731       O732   2.065       .  S
Fe731       O740   1.955       .  S
O732        C739   1.267       .  A
O733        C747   1.269       .  A
O734        C739   1.271       .  A
O735        C738   1.274       .  A
O736        C748   1.265       .  A
O737        C750   1.274       .  A
C738        O743   1.272       .  A
C738        C797   1.485       .  S
O741        C744   1.266       .  A
O742        C744   1.270       .  A
O745        C750   1.273       .  A
O746        C748   1.271       .  A
C747        O749   1.273       .  A
C747        C787   1.485       .  S
C750       C1687   1.496       .  S
C751        C752   1.363   1_655  D
C751       C1297   1.504       .  S
C751       C1327   1.496       .  S
C752        C757   1.502       .  S
C752        C767   1.496       .  S
C753        C754   1.411       .  A
C753        C758   1.400       .  A
C753        H760   1.083       .  S
C754        C755   1.417       .  A
C755        C756   1.405       .  A
C755       Br762   1.920       .  S
C756        C757   1.404       .  A
C756        H761   1.079       .  S
C757        C758   1.409       .  A
C758       Br759   1.917       .  S
C763        C764   1.406       .  A
C763        C768   1.396       .  A
C763        H770   1.084       .  S
C764        C765   1.413       .  A
C765        C766   1.405       .  A
C765       Br772   1.919       .  S
C766        C767   1.406       .  A
C766        H771   1.081       .  S
C767        C768   1.409       .  A
C768       Br769   1.916       .  S
C773        C774   1.405       .  A
C773        C778   1.405       .  A
C773        H780   1.079       .  S
C774        C775   1.407       .  A
C775        C776   1.396       .  A
C775       Br782   1.915       .  S
C776        C777   1.410       .  A
C776        H781   1.084       .  S
C777        C778   1.415       .  A
C778       Br779   1.919       .  S
C783        C784   1.404       .  A
C783        C788   1.400       .  A
C783        H790   1.070       .  S
C784        C785   1.409       .  A
C785        C786   1.401       .  A
C785       Br792   1.915       .  S
C786        C787   1.408       .  A
C786        H791   1.082       .  S
C787        C788   1.409       .  A
C788       Br789   1.920       .  S
C793        C794   1.404       .  A
C793        C798   1.397       .  A
C793        H800   1.083       .  S
C794        C795   1.414       .  A
C795        C796   1.406       .  A
C795       Br802   1.915       .  S
C796        C797   1.407       .  A
C796        H801   1.084       .  S
C797        C798   1.413       .  A
C798       Br799   1.922       .  S
C803        C804   1.407       .  A
C803        C808   1.406       .  A
C803        H810   1.083       .  S
C804        C805   1.410       .  A
C805        C806   1.396       .  A
C805       Br812   1.912       .  S
C806        C807   1.404       .  A
C806        H811   1.084       .  S
C807        C808   1.414       .  A
C808       Br809   1.919       .  S
C813        C814   1.404       .  A
C813        C818   1.403       .  A
C813        H820   1.081       .  S
C814        C815   1.408       .  A
C815        C816   1.398       .  A
C815       Br822   1.913       .  S
C816        C817   1.409       .  A
C816        H821   1.084       .  S
C817        C818   1.416       .  A
C818       Br819   1.919       .  S
C823        C824   1.402       .  A
C823        C828   1.396       .  A
C823        H830   1.082       .  S
C824        C825   1.414       .  A
C825        C826   1.402       .  A
C825       Br832   1.912       .  S
C826        C827   1.404       .  A
C826        H831   1.084       .  S
C827        C828   1.416       .  A
C828       Br829   1.923       .  S
C833        C834   1.405       .  A
C833        C838   1.401       .  A
C833        H840   1.083       .  S
C834        C835   1.420       .  A
C835        C836   1.398       .  A
C835       Br842   1.924       .  S
C836        C837   1.400       .  A
C836        H841   1.081       .  S
C837        C838   1.411       .  A
C838       Br839   1.911       .  S
C843        C844   1.406       .  A
C843        C848   1.401       .  A
C843        H850   1.084       .  S
C844        C845   1.417       .  A
C845        C846   1.403       .  A
C845       Br852   1.922       .  S
C846        C847   1.404       .  A
C846        H851   1.081       .  S
C847        C848   1.411       .  A
C848       Br849   1.908       .  S
C853        C854   1.403       .  A
C853        C858   1.397       .  A
C853        H860   1.082       .  S
C854        C855   1.411       .  A
C855        C856   1.404       .  A
C855       Br862   1.913       .  S
C856        C857   1.409       .  A
C856        H861   1.084       .  S
C857        C858   1.414       .  A
C858       Br859   1.922       .  S
C863        C864   1.407       .  A
C863        C868   1.402       .  A
C863        H870   1.084       .  S
C864        C865   1.419       .  A
C865        C866   1.401       .  A
C865       Br872   1.923       .  S
C866        C867   1.400       .  A
C866        H871   1.081       .  S
C867        C868   1.410       .  A
C868       Br869   1.915       .  S
C873        C874   1.406       .  A
C873        C878   1.396       .  A
C873        H880   1.084       .  S
C874        C875   1.418       .  A
C875        C876   1.404       .  A
C875       Br882   1.921       .  S
C876        C877   1.403       .  A
C876        H881   1.080       .  S
C877        C878   1.411       .  A
C878       Br879   1.915       .  S
C883        C884   1.408       .  A
C883        C888   1.403       .  A
C883        H890   1.084       .  S
C884        C885   1.416       .  A
C885        C886   1.397       .  A
C885       Br892   1.923       .  S
C886        C887   1.401       .  A
C886        H891   1.082       .  S
C887        C888   1.411       .  A
C888       Br889   1.916       .  S
C893        C894   1.403       .  A
C893        C898   1.398       .  A
C893        H900   1.081       .  S
C894        C895   1.411       .  A
C895        C896   1.403       .  A
C895       Br902   1.913       .  S
C896        C897   1.409       .  A
C896        H901   1.084       .  S
C897        C898   1.416       .  A
C898       Br899   1.922       .  S
C903        C904   1.404       .  A
C903        C908   1.402       .  A
C903        H910   1.081       .  S
C904        C905   1.411       .  A
C905        C906   1.398       .  A
C905       Br912   1.912       .  S
C906        C907   1.406       .  A
C906        H911   1.084       .  S
C907        C908   1.418       .  A
C908       Br909   1.922       .  S
C913        C914   1.403       .  A
C913        C918   1.401       .  A
C913        H920   1.083       .  S
C914        C915   1.410       .  A
C915        C916   1.405       .  A
C915       Br922   1.917       .  S
C916        C917   1.411       .  A
C916        H921   1.084       .  S
C917        C918   1.418       .  A
C918       Br919   1.921       .  S
C923        C924   1.423       .  A
C923        C928   1.423       .  A
C923        H930   1.079       .  S
C924        C925   1.404       .  A
C925        C926   1.381       .  A
C925       Br932   1.912       .  S
C926        C927   1.394       .  A
C926        H931   1.081       .  S
C927        C928   1.415       .  A
C928       Br929   1.912       .  S
C933        C934   1.409       .  A
C933        C938   1.400       .  A
C933        H940   1.084       .  S
C934        C935   1.417       .  A
C935        C936   1.404       .  A
C935       Br942   1.920       .  S
C936        C937   1.405       .  A
C936        H941   1.081       .  S
C937        C938   1.410       .  A
C938       Br939   1.912       .  S
C943        C944   1.408       .  A
C943        C948   1.407       .  A
C943        H950   1.084       .  S
C944        C945   1.415       .  A
C945        C946   1.397       .  A
C945       Br952   1.923       .  S
C946        C947   1.404       .  A
C946        H951   1.083       .  S
C947        C948   1.413       .  A
C948       Br949   1.915       .  S
C953        C954   1.407       .  A
C953        C958   1.404       .  A
C953        H960   1.084       .  S
C954        C955   1.418       .  A
C955        C956   1.397       .  A
C955       Br962   1.924       .  S
C956        C957   1.401       .  A
C956        H961   1.082       .  S
C957        C958   1.412       .  A
C958       Br959   1.916       .  S
C963        C964   1.407       .  A
C963        C968   1.393       .  A
C963        H970   1.084       .  S
C964        C965   1.418       .  A
C965        C966   1.412       .  A
C965       Br972   1.918       .  S
C966        C967   1.409       .  A
C966        H971   1.083       .  S
C967        C968   1.410       .  A
C968       Br969   1.913       .  S
C973        C974   1.407       .  A
C973        C978   1.392       .  A
C973        H980   1.084       .  S
C974        C975   1.419       .  A
C975        C976   1.409       .  A
C975       Br982   1.920       .  S
C976        C977   1.407       .  A
C976        H981   1.084       .  S
C977        C978   1.409       .  A
C978       Br979   1.914       .  S
C983        C984   1.409       .  A
C983        C988   1.407       .  A
C983        H990   1.083       .  S
C984        C985   1.419       .  A
C985        C986   1.392       .  A
C985       Br992   1.926       .  S
C986        C987   1.399       .  A
C986        H991   1.083       .  S
C987        C988   1.413       .  A
C988       Br989   1.915       .  S
C993        C994   1.404       .  A
C993        C998   1.399       .  A
C993       H1000   1.083       .  S
C994        C995   1.412       .  A
C995        C996   1.402       .  A
C995      Br1002   1.910       .  S
C996        C997   1.406       .  A
C996       H1001   1.084       .  S
C997        C998   1.415       .  A
C998       Br999   1.922       .  S
C1003      C1004   1.403       .  A
C1003      C1008   1.403       .  A
C1003      H1010   1.083       .  S
C1004      C1005   1.409       .  A
C1005      C1006   1.399       .  A
C1005     Br1012   1.913       .  S
C1006      C1007   1.406       .  A
C1006      H1011   1.084       .  S
C1007      C1008   1.417       .  A
C1008     Br1009   1.920       .  S
C1013      C1014   1.406       .  A
C1013      C1018   1.406       .  A
C1013      H1020   1.083       .  S
C1014      C1015   1.412       .  A
C1015      C1016   1.395       .  A
C1015     Br1022   1.919       .  S
C1016      C1017   1.403       .  A
C1016      H1021   1.084       .  S
C1017      C1018   1.413       .  A
C1018     Br1019   1.918       .  S
C1023      C1024   1.405       .  A
C1023      C1028   1.399       .  A
C1023      H1030   1.084       .  S
C1024      C1025   1.415       .  A
C1025      C1026   1.402       .  A
C1025     Br1032   1.919       .  S
C1026      C1027   1.402       .  A
C1026      H1031   1.082       .  S
C1027      C1028   1.410       .  A
C1028     Br1029   1.917       .  S
C1033      C1034   1.404       .  A
C1033      C1038   1.399       .  A
C1033      H1040   1.084       .  S
C1034      C1035   1.416       .  A
C1035      C1036   1.401       .  A
C1035     Br1042   1.923       .  S
C1036      C1037   1.404       .  A
C1036      H1041   1.081       .  S
C1037      C1038   1.411       .  A
C1038     Br1039   1.907       .  S
C1043      C1044   1.408       .  A
C1043      C1048   1.403       .  A
C1043      H1050   1.084       .  S
C1044      C1045   1.417       .  A
C1045      C1046   1.398       .  A
C1045     Br1052   1.923       .  S
C1046      C1047   1.401       .  A
C1046      H1051   1.082       .  S
C1047      C1048   1.412       .  A
C1048     Br1049   1.916       .  S
C1053      C1054   1.402       .  A
C1053      C1058   1.400       .  A
C1053      H1060   1.077       .  S
C1054      C1055   1.410       .  A
C1055      C1056   1.401       .  A
C1055     Br1062   1.916       .  S
C1056      C1057   1.406       .  A
C1056      H1061   1.083       .  S
C1057      C1058   1.413       .  A
C1058     Br1059   1.920       .  S
C1063      C1064   1.404       .  A
C1063      C1068   1.397       .  A
C1063      H1070   1.084       .  S
C1064      C1065   1.415       .  A
C1065      C1066   1.407       .  A
C1065     Br1072   1.919       .  S
C1066      C1067   1.406       .  A
C1066      H1071   1.083       .  S
C1067      C1068   1.413       .  A
C1068     Br1069   1.918       .  S
C1073      C1074   1.408       .  A
C1073      C1078   1.396       .  A
C1073      H1080   1.084       .  S
C1074      C1075   1.418       .  A
C1075      C1076   1.405       .  A
C1075     Br1082   1.920       .  S
C1076      C1077   1.405       .  A
C1076      H1081   1.082       .  S
C1077      C1078   1.408       .  A
C1078     Br1079   1.914       .  S
C1083      C1084   1.406       .  A
C1083      C1088   1.403       .  A
C1083      H1090   1.084       .  S
C1084      C1085   1.417       .  A
C1085      C1086   1.401       .  A
C1085     Br1092   1.922       .  S
C1086      C1087   1.404       .  A
C1086      H1091   1.082       .  S
C1087      C1088   1.412       .  A
C1088     Br1089   1.909       .  S
C1093      C1094   1.408       .  A
C1093      C1098   1.409       .  A
C1093      H1100   1.084       .  S
C1094      C1095   1.408       .  A
C1095      C1096   1.391       .  A
C1095     Br1102   1.913       .  S
C1096      C1097   1.407       .  A
C1096      H1101   1.084       .  S
C1097      C1098   1.418       .  A
C1098     Br1099   1.919       .  S
C1103      C1104   1.403       .  A
C1103      C1108   1.396       .  A
C1103      H1110   1.083       .  S
C1104      C1105   1.414       .  A
C1105      C1106   1.405       .  A
C1105     Br1112   1.915       .  S
C1106      C1107   1.407       .  A
C1106      H1111   1.084       .  S
C1107      C1108   1.415       .  A
C1108     Br1109   1.923       .  S
C1113      C1114   1.400       .  A
C1113      C1118   1.397       .  A
C1113      H1120   1.080       .  S
C1114      C1115   1.410       .  A
C1115      C1116   1.404       .  A
C1115     Br1122   1.916       .  S
C1116      C1117   1.410       .  A
C1116      H1121   1.084       .  S
C1117      C1118   1.417       .  A
C1118     Br1119   1.924       .  S
C1123      C1124   1.407       .  A
C1123      C1128   1.398       .  A
C1123      H1130   1.084       .  S
C1124      C1125   1.416       .  A
C1125      C1126   1.403       .  A
C1125     Br1132   1.921       .  S
C1126      C1127   1.404       .  A
C1126      H1131   1.082       .  S
C1127      C1128   1.410       .  A
C1128     Br1129   1.910       .  S
C1133      C1134   1.404       .  A
C1133      C1138   1.402       .  A
C1133      H1140   1.082       .  S
C1134      C1135   1.409       .  A
C1135      C1136   1.402       .  A
C1135     Br1142   1.912       .  S
C1136      C1137   1.409       .  A
C1136      H1141   1.084       .  S
C1137      C1138   1.417       .  A
C1138     Br1139   1.922       .  S
C1143      C1144   1.400       .  A
C1143      C1148   1.395       .  A
C1143      H1150   1.082       .  S
C1144      C1145   1.409       .  A
C1145      C1146   1.403       .  A
C1145     Br1152   1.916       .  S
C1146      C1147   1.409       .  A
C1146      H1151   1.084       .  S
C1147      C1148   1.415       .  A
C1148     Br1149   1.923       .  S
C1153      C1154   1.402       .  A
C1153      C1158   1.393       .  A
C1153      H1160   1.084       .  S
C1154      C1155   1.415       .  A
C1155      C1156   1.404       .  A
C1155     Br1162   1.919       .  S
C1156      C1157   1.406       .  A
C1156      H1161   1.084       .  S
C1157      C1158   1.411       .  A
C1158     Br1159   1.913       .  S
C1163      C1164   1.406       .  A
C1163      C1168   1.402       .  A
C1163      H1170   1.084       .  S
C1164      C1165   1.415       .  A
C1165      C1166   1.397       .  A
C1165     Br1172   1.923       .  S
C1166      C1167   1.402       .  A
C1166      H1171   1.079       .  S
C1167      C1168   1.410       .  A
C1168     Br1169   1.912       .  S
C1173      C1174   1.407       .  A
C1173      C1178   1.406       .  A
C1173      H1180   1.084       .  S
C1174      C1175   1.415       .  A
C1175      C1176   1.396       .  A
C1175     Br1182   1.923       .  S
C1176      C1177   1.403       .  A
C1176      H1181   1.084       .  S
C1177      C1178   1.414       .  A
C1178     Br1179   1.915       .  S
C1183      C1184   1.406       .  A
C1183      C1188   1.403       .  A
C1183      H1190   1.084       .  S
C1184      C1185   1.415       .  A
C1185      C1186   1.398       .  A
C1185     Br1192   1.922       .  S
C1186      C1187   1.404       .  A
C1186      H1191   1.082       .  S
C1187      C1188   1.413       .  A
C1188     Br1189   1.912       .  S
C1193      C1194   1.407       .  A
C1193      C1198   1.402       .  A
C1193      H1200   1.083       .  S
C1194      C1195   1.418       .  A
C1195      C1196   1.400       .  A
C1195     Br1202   1.923       .  S
C1196      C1197   1.401       .  A
C1196      H1201   1.080       .  S
C1197      C1198   1.411       .  A
C1198     Br1199   1.914       .  S
C1203      C1204   1.402       .  A
C1203      C1208   1.403       .  A
C1203      H1210   1.080       .  S
C1204      C1205   1.410       .  A
C1205      C1206   1.398       .  A
C1205     Br1212   1.914       .  S
C1206      C1207   1.407       .  A
C1206      H1211   1.084       .  S
C1207      C1208   1.418       .  A
C1208     Br1209   1.922       .  S
C1213      C1214   1.412       .  A
C1213      C1218   1.400       .  A
C1213      H1220   1.083       .  S
C1214      C1215   1.414       .  A
C1215      C1216   1.403       .  A
C1215     Br1222   1.920       .  S
C1216      C1217   1.404       .  A
C1216      H1221   1.076       .  S
C1217      C1218   1.407       .  A
C1218     Br1219   1.916       .  S
C1223      C1224   1.411       .  A
C1223      C1228   1.398       .  A
C1223      H1230   1.084       .  S
C1224      C1225   1.415       .  A
C1225      C1226   1.404       .  A
C1225     Br1232   1.919       .  S
C1226      C1227   1.404       .  A
C1226      H1231   1.079       .  S
C1227      C1228   1.408       .  A
C1228     Br1229   1.915       .  S
C1233      C1234   1.402       .  A
C1233      C1238   1.400       .  A
C1233      H1240   1.081       .  S
C1234      C1235   1.411       .  A
C1235      C1236   1.400       .  A
C1235     Br1242   1.914       .  S
C1236      C1237   1.407       .  A
C1236      H1241   1.084       .  S
C1237      C1238   1.417       .  A
C1238     Br1239   1.922       .  S
C1243      C1244   1.401       .  A
C1243      C1248   1.397       .  A
C1243      H1250   1.079       .  S
C1244      C1245   1.410       .  A
C1245      C1246   1.401       .  A
C1245     Br1252   1.915       .  S
C1246      C1247   1.408       .  A
C1246      H1251   1.084       .  S
C1247      C1248   1.416       .  A
C1248     Br1249   1.923       .  S
C1253      C1254   1.408       .  A
C1253      C1258   1.411       .  A
C1253      H1260   1.082       .  S
C1254      C1255   1.409       .  A
C1255      C1256   1.391       .  A
C1255     Br1262   1.921       .  S
C1256      C1257   1.410       .  A
C1256      H1261   1.083       .  S
C1257      C1258   1.417       .  A
C1258     Br1259   1.918       .  S
C1263      C1264   1.403       .  A
C1263      C1268   1.404       .  A
C1263      H1270   1.081       .  S
C1264      C1265   1.410       .  A
C1265      C1266   1.401       .  A
C1265     Br1272   1.916       .  S
C1266      C1267   1.407       .  A
C1266      H1271   1.084       .  S
C1267      C1268   1.415       .  A
C1268     Br1269   1.919       .  S
C1273      C1274   1.403       .  A
C1273      C1278   1.403       .  A
C1273      H1280   1.083       .  S
C1274      C1275   1.409       .  A
C1275      C1276   1.400       .  A
C1275     Br1282   1.912       .  S
C1276      C1277   1.406       .  A
C1276      H1281   1.084       .  S
C1277      C1278   1.417       .  A
C1278     Br1279   1.920       .  S
C1283      C1284   1.409       .  A
C1283      C1288   1.405       .  A
C1283      H1290   1.083       .  S
C1284      C1285   1.416       .  A
C1285      C1286   1.395       .  A
C1285     Br1292   1.924       .  S
C1286      C1287   1.399       .  A
C1286      H1291   1.078       .  S
C1287      C1288   1.410       .  A
C1288     Br1289   1.915       .  S
C1293      C1294   1.407       .  A
C1293      C1298   1.405       .  A
C1293      H1300   1.083       .  S
C1294      C1295   1.420       .  A
C1295      C1296   1.403       .  A
C1295     Br1302   1.923       .  S
C1296      C1297   1.403       .  A
C1296      H1301   1.083       .  S
C1297      C1298   1.411       .  A
C1298     Br1299   1.908       .  S
C1303      C1304   1.409       .  A
C1303      C1308   1.400       .  A
C1303      H1310   1.084       .  S
C1304      C1305   1.416       .  A
C1305      C1306   1.399       .  A
C1305     Br1312   1.922       .  S
C1306      C1307   1.402       .  A
C1306      H1311   1.079       .  S
C1307      C1308   1.409       .  A
C1308     Br1309   1.915       .  S
C1313      C1314   1.405       .  A
C1313      C1318   1.402       .  A
C1313      H1320   1.083       .  S
C1314      C1315   1.415       .  A
C1315      C1316   1.403       .  A
C1315     Br1322   1.906       .  S
C1316      C1317   1.403       .  A
C1316      H1321   1.084       .  S
C1317      C1318   1.416       .  A
C1318     Br1319   1.922       .  S
C1323      C1324   1.406       .  A
C1323      C1328   1.401       .  A
C1323      H1330   1.083       .  S
C1324      C1325   1.419       .  A
C1325      C1326   1.400       .  A
C1325     Br1332   1.923       .  S
C1326      C1327   1.401       .  A
C1326      H1331   1.082       .  S
C1327      C1328   1.410       .  A
C1328     Br1329   1.912       .  S
C1333      C1334   1.403       .  A
C1333      C1338   1.401       .  A
C1333      H1340   1.081       .  S
C1334      C1335   1.411       .  A
C1335      C1336   1.399       .  A
C1335     Br1342   1.912       .  S
C1336      C1337   1.406       .  A
C1336      H1341   1.084       .  S
C1337      C1338   1.417       .  A
C1338     Br1339   1.922       .  S
C1343      C1344   1.407       .  A
C1343      C1348   1.403       .  A
C1343      H1350   1.084       .  S
C1344      C1345   1.417       .  A
C1345      C1346   1.400       .  A
C1345     Br1352   1.923       .  S
C1346      C1347   1.404       .  A
C1346      H1351   1.081       .  S
C1347      C1348   1.412       .  A
C1348     Br1349   1.912       .  S
C1353      C1354   1.401       .  A
C1353      C1358   1.398       .  A
C1353      H1360   1.080       .  S
C1354      C1355   1.413       .  A
C1355      C1356   1.405       .  A
C1355     Br1362   1.911       .  S
C1356      C1357   1.406       .  A
C1356      H1361   1.083       .  S
C1357      C1358   1.419       .  A
C1358     Br1359   1.924       .  S
C1363      C1364   1.404       .  A
C1363      C1368   1.399       .  A
C1363      H1370   1.081       .  S
C1364      C1365   1.411       .  A
C1365      C1366   1.402       .  A
C1365     Br1372   1.913       .  S
C1366      C1367   1.408       .  A
C1366      H1371   1.084       .  S
C1367      C1368   1.414       .  A
C1368     Br1369   1.921       .  S
C1373      C1374   1.403       .  A
C1373      C1378   1.395       .  A
C1373      H1380   1.084       .  S
C1374      C1375   1.413       .  A
C1375      C1376   1.404       .  A
C1375     Br1382   1.915       .  S
C1376      C1377   1.407       .  A
C1376      H1381   1.084       .  S
C1377      C1378   1.413       .  A
C1378     Br1379   1.923       .  S
C1383      C1384   1.407       .  A
C1383      C1388   1.406       .  A
C1383      H1390   1.084       .  S
C1384      C1385   1.412       .  A
C1385      C1386   1.395       .  A
C1385     Br1392   1.913       .  S
C1386      C1387   1.402       .  A
C1386      H1391   1.084       .  S
C1387      C1388   1.414       .  A
C1388     Br1389   1.919       .  S
C1393      C1394   1.403       .  A
C1393      C1398   1.400       .  A
C1393      H1400   1.082       .  S
C1394      C1395   1.409       .  A
C1395      C1396   1.399       .  A
C1395     Br1402   1.911       .  S
C1396      C1397   1.407       .  A
C1396      H1401   1.084       .  S
C1397      C1398   1.416       .  A
C1398     Br1399   1.922       .  S
C1403      C1404   1.401       .  A
C1403      C1408   1.397       .  A
C1403      H1410   1.082       .  S
C1404      C1405   1.410       .  A
C1405      C1406   1.406       .  A
C1405     Br1412   1.916       .  S
C1406      C1407   1.410       .  A
C1406      H1411   1.084       .  S
C1407      C1408   1.417       .  A
C1408     Br1409   1.923       .  S
C1413      C1414   1.405       .  A
C1413      C1418   1.401       .  A
C1413      H1420   1.083       .  S
C1414      C1415   1.414       .  A
C1415      C1416   1.403       .  A
C1415     Br1422   1.912       .  S
C1416      C1417   1.406       .  A
C1416      H1421   1.084       .  S
C1417      C1418   1.415       .  A
C1418     Br1419   1.921       .  S
C1423      C1424   1.407       .  A
C1423      C1428   1.391       .  A
C1423      H1430   1.084       .  S
C1424      C1425   1.420       .  A
C1425      C1426   1.410       .  A
C1425     Br1432   1.920       .  S
C1426      C1427   1.407       .  A
C1426      H1431   1.083       .  S
C1427      C1428   1.408       .  A
C1428     Br1429   1.916       .  S
C1433      C1434   1.404       .  A
C1433      C1438   1.397       .  A
C1433      H1440   1.082       .  S
C1434      C1435   1.415       .  A
C1435      C1436   1.404       .  A
C1435     Br1442   1.913       .  S
C1436      C1437   1.405       .  A
C1436      H1441   1.084       .  S
C1437      C1438   1.414       .  A
C1438     Br1439   1.923       .  S
C1443      C1444   1.403       .  A
C1443      C1448   1.404       .  A
C1443      H1450   1.083       .  S
C1444      C1445   1.407       .  A
C1445      C1446   1.396       .  A
C1445     Br1452   1.913       .  S
C1446      C1447   1.408       .  A
C1446      H1451   1.084       .  S
C1447      C1448   1.419       .  A
C1448     Br1449   1.920       .  S
C1453      C1454   1.407       .  A
C1453      C1458   1.402       .  A
C1453      H1460   1.084       .  S
C1454      C1455   1.417       .  A
C1455      C1456   1.403       .  A
C1455     Br1462   1.920       .  S
C1456      C1457   1.403       .  A
C1456      H1461   1.081       .  S
C1457      C1458   1.410       .  A
C1458     Br1459   1.912       .  S
C1463      C1464   1.403       .  A
C1463      C1468   1.395       .  A
C1463      H1470   1.084       .  S
C1464      C1465   1.413       .  A
C1465      C1466   1.405       .  A
C1465     Br1472   1.918       .  S
C1466      C1467   1.407       .  A
C1466      H1471   1.084       .  S
C1467      C1468   1.410       .  A
C1468     Br1469   1.915       .  S
C1473      C1474   1.408       .  A
C1473      C1478   1.405       .  A
C1473      H1480   1.083       .  S
C1474      C1475   1.423       .  A
C1475      C1476   1.399       .  A
C1475     Br1482   1.926       .  S
C1476      C1477   1.399       .  A
C1476      H1481   1.083       .  S
C1477      C1478   1.411       .  A
C1478     Br1479   1.912       .  S
C1483      C1484   1.402       .  A
C1483      C1488   1.404       .  A
C1483      H1490   1.084       .  S
C1484      C1485   1.415       .  A
C1485      C1486   1.401       .  A
C1485     Br1492   1.922       .  S
C1486      C1487   1.406       .  A
C1486      H1491   1.084       .  S
C1487      C1488   1.417       .  A
C1488     Br1489   1.906       .  S
C1493      C1494   1.406       .  A
C1493      C1498   1.402       .  A
C1493      H1500   1.084       .  S
C1494      C1495   1.413       .  A
C1495      C1496   1.394       .  A
C1495     Br1502   1.923       .  S
C1496      C1497   1.403       .  A
C1496      H1501   1.083       .  S
C1497      C1498   1.413       .  A
C1498     Br1499   1.914       .  S
C1503      C1504   1.408       .  A
C1503      C1508   1.405       .  A
C1503      H1510   1.084       .  S
C1504      C1505   1.417       .  A
C1505      C1506   1.395       .  A
C1505     Br1512   1.924       .  S
C1506      C1507   1.400       .  A
C1506      H1511   1.080       .  S
C1507      C1508   1.411       .  A
C1508     Br1509   1.916       .  S
C1513      C1514   1.398       .  A
C1513      C1518   1.397       .  A
C1513      H1520   1.079       .  S
C1514      C1515   1.411       .  A
C1515      C1516   1.403       .  A
C1515     Br1522   1.914       .  S
C1516      C1517   1.407       .  A
C1516      H1521   1.083       .  S
C1517      C1518   1.421       .  A
C1518     Br1519   1.925       .  S
C1523      C1524   1.402       .  A
C1523      C1528   1.402       .  A
C1523      H1530   1.080       .  S
C1524      C1525   1.412       .  A
C1525      C1526   1.400       .  A
C1525     Br1532   1.913       .  S
C1526      C1527   1.406       .  A
C1526      H1531   1.084       .  S
C1527      C1528   1.419       .  A
C1528     Br1529   1.923       .  S
C1533      C1534   1.402       .  A
C1533      C1538   1.402       .  A
C1533      H1540   1.079       .  S
C1534      C1535   1.410       .  A
C1535      C1536   1.400       .  A
C1535     Br1542   1.914       .  S
C1536      C1537   1.408       .  A
C1536      H1541   1.084       .  S
C1537      C1538   1.418       .  A
C1538     Br1539   1.921       .  S
C1543      C1544   1.408       .  A
C1543      C1548   1.403       .  A
C1543      H1550   1.083       .  S
C1544      C1545   1.414       .  A
C1545      C1546   1.397       .  A
C1545     Br1552   1.923       .  S
C1546      C1547   1.400       .  A
C1546      H1551   1.077       .  S
C1547      C1548   1.410       .  A
C1548     Br1549   1.915       .  S
C1553      C1554   1.405       .  A
C1553      C1558   1.404       .  A
C1553      H1560   1.081       .  S
C1554      C1555   1.405       .  A
C1555      C1556   1.395       .  A
C1555     Br1562   1.914       .  S
C1556      C1557   1.411       .  A
C1556      H1561   1.084       .  S
C1557      C1558   1.414       .  A
C1558     Br1559   1.919       .  S
C1563      C1564   1.407       .  A
C1563      C1568   1.407       .  A
C1563      H1570   1.081       .  S
C1564      C1565   1.408       .  A
C1565      C1566   1.398       .  A
C1565     Br1572   1.914       .  S
C1566      C1567   1.411       .  A
C1566      H1571   1.083       .  S
C1567      C1568   1.416       .  A
C1568     Br1569   1.919       .  S
C1573      C1574   1.404       .  A
C1573      C1578   1.396       .  A
C1573      H1580   1.084       .  S
C1574      C1575   1.413       .  A
C1575      C1576   1.401       .  A
C1575     Br1582   1.919       .  S
C1576      C1577   1.403       .  A
C1576      H1581   1.081       .  S
C1577      C1578   1.410       .  A
C1578     Br1579   1.915       .  S
C1583      C1584   1.405       .  A
C1583      C1588   1.400       .  A
C1583      H1590   1.084       .  S
C1584      C1585   1.414       .  A
C1585      C1586   1.404       .  A
C1585     Br1592   1.919       .  S
C1586      C1587   1.405       .  A
C1586      H1591   1.081       .  S
C1587      C1588   1.413       .  A
C1588     Br1589   1.915       .  S
C1593      C1594   1.407       .  A
C1593      C1598   1.408       .  A
C1593      H1600   1.081       .  S
C1594      C1595   1.409       .  A
C1595      C1596   1.394       .  A
C1595     Br1602   1.915       .  S
C1596      C1597   1.409       .  A
C1596      H1601   1.084       .  S
C1597      C1598   1.417       .  A
C1598     Br1599   1.919       .  S
C1603      C1604   1.400       .  A
C1603      C1608   1.398       .  A
C1603      H1610   1.074       .  S
C1604      C1605   1.411       .  A
C1605      C1606   1.406       .  A
C1605     Br1612   1.915       .  S
C1606      C1607   1.408       .  A
C1606      H1611   1.083       .  S
C1607      C1608   1.415       .  A
C1608     Br1609   1.923       .  S
C1613      C1614   1.404       .  A
C1613      C1618   1.402       .  A
C1613      H1620   1.082       .  S
C1614      C1615   1.413       .  A
C1615      C1616   1.400       .  A
C1615     Br1622   1.911       .  S
C1616      C1617   1.405       .  A
C1616      H1621   1.084       .  S
C1617      C1618   1.417       .  A
C1618     Br1619   1.921       .  S
C1623      C1624   1.406       .  A
C1623      C1628   1.406       .  A
C1623      H1630   1.083       .  S
C1624      C1625   1.411       .  A
C1625      C1626   1.397       .  A
C1625     Br1632   1.905       .  S
C1626      C1627   1.405       .  A
C1626      H1631   1.084       .  S
C1627      C1628   1.418       .  A
C1628     Br1629   1.920       .  S
C1633      C1634   1.406       .  A
C1633      C1638   1.401       .  A
C1633      H1640   1.083       .  S
C1634      C1635   1.416       .  A
C1635      C1636   1.401       .  A
C1635     Br1642   1.905       .  S
C1636      C1637   1.401       .  A
C1636      H1641   1.084       .  S
C1637      C1638   1.415       .  A
C1638     Br1639   1.922       .  S
C1643      C1644   1.403       .  A
C1643      C1648   1.402       .  A
C1643      H1650   1.082       .  S
C1644      C1645   1.408       .  A
C1645      C1646   1.399       .  A
C1645     Br1652   1.912       .  S
C1646      C1647   1.405       .  A
C1646      H1651   1.084       .  S
C1647      C1648   1.416       .  A
C1648     Br1649   1.920       .  S
C1653      C1654   1.402       .  A
C1653      C1658   1.403       .  A
C1653      H1660   1.081       .  S
C1654      C1655   1.410       .  A
C1655      C1656   1.401       .  A
C1655     Br1662   1.916       .  S
C1656      C1657   1.406       .  A
C1656      H1661   1.083       .  S
C1657      C1658   1.417       .  A
C1658     Br1659   1.920       .  S
C1663      C1664   1.408       .  A
C1663      C1668   1.391       .  A
C1663      H1670   1.083       .  S
C1664      C1665   1.419       .  A
C1665      C1666   1.409       .  A
C1665     Br1672   1.920       .  S
C1666      C1667   1.406       .  A
C1666      H1671   1.082       .  S
C1667      C1668   1.409       .  A
C1668     Br1669   1.922       .  S
C1673      C1674   1.407       .  A
C1673      C1678   1.405       .  A
C1673      H1680   1.082       .  S
C1674      C1675   1.414       .  A
C1675      C1676   1.397       .  A
C1675     Br1682   1.917       .  S
C1676      C1677   1.404       .  A
C1676      H1681   1.084       .  S
C1677      C1678   1.412       .  A
C1678     Br1679   1.919       .  S
C1683      C1684   1.403       .  A
C1683      C1688   1.403       .  A
C1683      H1690   1.079       .  S
C1684      C1685   1.407       .  A
C1685      C1686   1.397       .  A
C1685     Br1692   1.918       .  S
C1686      C1687   1.411       .  A
C1686      H1691   1.084       .  S
C1687      C1688   1.416       .  A
C1688     Br1689   1.920       .  S
C1693      C1694   1.406       .  A
C1693      C1698   1.405       .  A
C1693      H1700   1.081       .  S
C1694      C1695   1.408       .  A
C1695      C1696   1.399       .  A
C1695     Br1702   1.913       .  S
C1696      C1697   1.409       .  A
C1696      H1701   1.084       .  S
C1697      C1698   1.417       .  A
C1698     Br1699   1.921       .  S
C1703      C1704   1.405       .  A
C1703      C1708   1.401       .  A
C1703      H1710   1.081       .  S
C1704      C1705   1.411       .  A
C1705      C1706   1.399       .  A
C1705     Br1712   1.908       .  S
C1706      C1707   1.405       .  A
C1706      H1711   1.084       .  S
C1707      C1708   1.415       .  A
C1708     Br1709   1.922       .  S
