geometry optimzed in LAMMPS
_audit_creation_date              2020-11-30 
_audit_creation_method            'lammps2cif' 
_symmetry_space_group_name_H-M    'P1' 
_symmetry_Int_Tables_number       1 
_symmetry_cell_setting            triclinic 
loop_ 
_symmetry_equiv_pos_as_xyz 
  x,y,z 
_cell_length_a                    27.89987553507041 
_cell_length_b                    29.47341631486328 
_cell_length_c                    28.221264566523853 
_cell_angle_alpha                 90.39938417344727 
_cell_angle_beta                  90.10020735921515 
_cell_angle_gamma                 89.44890340308919 
loop_ 
_atom_site_label 
_atom_site_type_symbol 
_atom_site_fract_x 
_atom_site_fract_y 
_atom_site_fract_z 
_atom_site_charge 
N1          N  0.44493295  0.44763552  0.41088293    -0.06340
N2          N  0.43674452  0.41725857  0.37741752    -0.58460
N3          N  0.40736211  0.05078314  0.44348285    -0.06020
N4          N  0.37224702  0.07941846  0.43340128    -0.60590
N5          N  0.44002662  0.05069873  0.40984953    -0.05620
N6          N  0.42726456  0.07880824  0.37570777    -0.58440
N7          N  0.41078419  0.44733721  0.44302808    -0.05300
N8          N  0.37813594  0.41698869  0.43146907    -0.60940
C9          C  0.39544312  0.39801965  0.39103762     0.95840
C10         C  0.38527279  0.09670660  0.39126477     0.95610
N11         N  0.44193197  0.05389317  0.08790221    -0.06530
N12         N  0.43345446  0.08673334  0.11882498    -0.59040
N13         N  0.41076528  0.44866533  0.05643602    -0.04640
N14         N  0.37819992  0.41817854  0.06700443    -0.60290
N15         N  0.44443237  0.44943287  0.08912344    -0.06550
N16         N  0.43573487  0.41909902  0.12224642    -0.59300
N17         N  0.40818207  0.05308803  0.05529214    -0.04290
N18         N  0.37609420  0.08554980  0.06342509    -0.60380
Mn19       Mn  0.40797167  0.99983108  0.49970756     1.18440
C20         C  0.39247522  0.10650137  0.10308491     0.97920
C21         C  0.39447564  0.39961179  0.10781174     0.98580
N22         N  0.05440739  0.05352081  0.41122940    -0.06570
N23         N  0.06284128  0.08440456  0.37878790    -0.62880
N24         N  0.08995958  0.44998552  0.44441103    -0.05380
N25         N  0.12155712  0.41709826  0.43771342    -0.63560
N26         N  0.05678776  0.44895816  0.41136402    -0.06080
N27         N  0.06507988  0.41509259  0.38145181    -0.63150
N28         N  0.08788191  0.05442524  0.44414038    -0.04980
N29         N  0.11957949  0.08621966  0.43480005    -0.63840
Mn30       Mn  0.49923954  0.50042270  0.40960480     1.10660
C31         C  0.10335352  0.10482332  0.39399033     0.99140
C32         C  0.10557136  0.39539643  0.39851854     0.99220
N33         N  0.05675630  0.45065749  0.08813282    -0.06090
N34         N  0.06564822  0.41925117  0.12000650    -0.61460
N35         N  0.08928450  0.05389841  0.05602128    -0.05410
N36         N  0.12294308  0.08355439  0.06621944    -0.58190
N37         N  0.05552489  0.05484402  0.08851487    -0.06720
N38         N  0.06529645  0.08565253  0.12129666    -0.61030
N39         N  0.08991546  0.44991736  0.05507537    -0.05700
N40         N  0.12198215  0.41767129  0.06365490    -0.58210
Mn41       Mn  0.99962005  0.00238489  0.08966642     1.20190
Mn42       Mn  0.09058674  0.50217724  0.99980716     1.10090
Cl43       Cl  0.99922391  0.00148593  0.99967458    -0.86190
C44         C  0.10599555  0.39855813  0.10404896     0.96150
C45         C  0.10718810  0.10347069  0.10657906     0.95950
C46         C  0.22098108  0.22461420  0.27658932    -0.02710
C47         C  0.22077752  0.27721587  0.28019520    -0.02710
C48         C  0.22021648  0.28021272  0.22485912    -0.02710
C49         C  0.22117837  0.22729080  0.22133339    -0.02710
C50         C  0.27696271  0.22466343  0.27713553    -0.02710
C51         C  0.27742568  0.22753515  0.22165047    -0.02710
C52         C  0.27617049  0.28029098  0.22445958    -0.02710
C53         C  0.27693727  0.27759123  0.27952268    -0.02710
C54         C  0.15492236  0.16458233  0.28811174    -0.21530
C55         C  0.18859449  0.19460405  0.30798451    -0.09570
C56         C  0.19059148  0.19665099  0.35808694     0.29290
C57         C  0.16305169  0.16759159  0.38611167    -0.21530
C58         C  0.13075915  0.13734014  0.36518406    -0.09580
C59         C  0.12618391  0.13703586  0.31582220     0.29300
F60         F  0.09505744  0.10874460  0.29368561    -0.20100
H61         H  0.14935037  0.16097899  0.25109775     0.17660
H62         H  0.16643161  0.16930464  0.42432825     0.17670
F63         F  0.21775902  0.22755285  0.38067849    -0.20090
C64         C  0.13824618  0.37704261  0.18167965    -0.21530
C65         C  0.13442194  0.36730840  0.13338091    -0.09570
C66         C  0.15999051  0.33026611  0.11431807     0.29290
C67         C  0.18717625  0.30217887  0.14423926    -0.21530
C68         C  0.18928046  0.31066171  0.19351497    -0.09580
C69         C  0.16670234  0.35042398  0.21101622     0.29300
F70         F  0.17644214  0.36761674  0.25431452    -0.20100
H71         H  0.12136605  0.40726289  0.19639506     0.17660
H72         H  0.20677978  0.27382481  0.12896282     0.17670
F73         F  0.15815938  0.32093934  0.06719810    -0.20090
C74         C  0.38270950  0.15490427  0.17492306    -0.21530
C75         C  0.36647742  0.14271389  0.12964536    -0.09570
C76         C  0.32502023  0.16425140  0.11179673     0.29290
C77         C  0.29895830  0.19492032  0.14032509    -0.21530
C78         C  0.31175539  0.20226910  0.18801436    -0.09580
C79         C  0.35616103  0.18443082  0.20360621     0.29300
F80         F  0.37495322  0.19550991  0.24635881    -0.20100
H81         H  0.41560603  0.14054167  0.18899596     0.17660
H82         H  0.26697025  0.21066398  0.12597024     0.17670
F83         F  0.30888903  0.15488245  0.06744417    -0.20090
C84         C  0.11685435  0.17754076  0.14786461    -0.21530
C85         C  0.13587500  0.13533326  0.13469415    -0.09570
C86         C  0.18172496  0.12278602  0.15039661     0.29290
C87         C  0.20852205  0.15271206  0.17809321    -0.21530
C88         C  0.19160812  0.19687970  0.18848044    -0.09580
C89         C  0.14400209  0.20792373  0.17482755     0.29300
F90         F  0.12155321  0.24583544  0.19078102    -0.20100
H91         H  0.08056487  0.18673720  0.13782937     0.17660
H92         H  0.24220714  0.14068233  0.19233923     0.17670
F93         F  0.19958368  0.08066680  0.14101224    -0.20090
C94         C  0.32744471  0.38493886  0.33669421    -0.21530
C95         C  0.36794579  0.36790650  0.36005899    -0.09570
C96         C  0.38354265  0.32345060  0.35065957     0.29290
C97         C  0.35583266  0.29504164  0.32195214    -0.21530
C98         C  0.31137401  0.31003744  0.30410481    -0.09580
C99         C  0.30039286  0.35667658  0.30742681     0.29300
F100        F  0.26249602  0.37463796  0.28396860    -0.20100
H101        H  0.31690524  0.42020829  0.34100573     0.17660
H102        H  0.36870691  0.26103605  0.31476017     0.17670
F103        F  0.42465583  0.30721634  0.37028073    -0.20090
C104        C  0.30847436  0.14531968  0.29342921    -0.21530
C105        C  0.30127325  0.19012951  0.30958060    -0.09570
C106        C  0.31553850  0.20087239  0.35639356     0.29290
C107        C  0.34214125  0.16986264  0.38302596    -0.21530
C108        C  0.35487257  0.12770172  0.36381461    -0.09580
C109        C  0.33683383  0.11491356  0.31934208     0.29300
F110        F  0.34641663  0.07304041  0.30118897    -0.20100
H111        H  0.29456442  0.13465750  0.25941052     0.17660
H112        H  0.35389899  0.17926068  0.41833873     0.17670
F113        F  0.30412894  0.24109007  0.37707135    -0.20090
C114        C  0.20839759  0.32174301  0.35674285    -0.21530
C115        C  0.18864491  0.30076848  0.31653702    -0.09570
C116        C  0.13857717  0.30291431  0.31047758     0.29290
C117        C  0.11096636  0.33288092  0.33815708    -0.21530
C118        C  0.13253661  0.35881171  0.37412862    -0.09580
C119        C  0.18110307  0.35103363  0.38483570     0.29300
F120        F  0.20314369  0.37332340  0.42091898    -0.20100
H121        H  0.24514629  0.31591747  0.36680155     0.17660
H122        H  0.07311755  0.33683007  0.33050040     0.17670
F123        F  0.11697949  0.27913335  0.27541249    -0.20090
C124        C  0.28880542  0.35025297  0.17145328    -0.21530
C125        C  0.30829391  0.31257373  0.19553067    -0.09670
C126        C  0.35865953  0.30703455  0.19358413     0.29290
C127        C  0.38687250  0.33496870  0.16487066    -0.21530
C128        C  0.36562002  0.36933238  0.13767017    -0.09580
C129        C  0.31637337  0.37721159  0.14200317     0.29300
F130        F  0.29505063  0.41290973  0.11992082    -0.20100
H131        H  0.25285802  0.36165059  0.17638155     0.17660
H132        H  0.42533183  0.32971836  0.16388871     0.17670
F133        F  0.38135195  0.27614821  0.22078782    -0.20090
N134        N  0.44493674  0.44763349  0.91088266    -0.06340
N135        N  0.43674828  0.41725656  0.87741719    -0.58460
N136        N  0.40736550  0.05078162  0.94348195    -0.06020
N137        N  0.37225037  0.07941674  0.93339944    -0.60590
N138        N  0.44003018  0.05069675  0.90984870    -0.05620
N139        N  0.42726826  0.07880569  0.87570632    -0.58440
N140        N  0.41078779  0.44733545  0.94302760    -0.05300
N141        N  0.37813939  0.41698718  0.93146836    -0.60940
C142        C  0.39544660  0.39801796  0.89103700     0.95840
C143        C  0.38527628  0.09670424  0.89126252     0.95610
N144        N  0.44192881  0.05389598  0.58790095    -0.06530
N145        N  0.43345198  0.08673722  0.61882252    -0.59040
N146        N  0.41076127  0.44866814  0.55643650    -0.04640
N147        N  0.37819515  0.41818232  0.56700559    -0.60290
N148        N  0.44442841  0.44943583  0.58912389    -0.06550
N149        N  0.43573027  0.41910284  0.62224748    -0.59300
N150        N  0.40817873  0.05309027  0.55529115    -0.04290
N151        N  0.37609135  0.08555268  0.56342299    -0.60380
Mn152      Mn  0.40797516  0.99982920  0.99970738     1.18440
C153        C  0.39247297  0.10650523  0.60308191     0.97920
C154        C  0.39447061  0.39961619  0.60781320     0.98580
N155        N  0.05441101  0.05351881  0.91122960    -0.06570
N156        N  0.06284509  0.08440242  0.87878808    -0.62880
N157        N  0.08996325  0.44998407  0.94441154    -0.05380
N158        N  0.12156001  0.41709590  0.93771550    -0.63560
N159        N  0.05679139  0.44895614  0.91136466    -0.06080
N160        N  0.06508273  0.41508923  0.88145394    -0.63150
N161        N  0.08788536  0.05442338  0.94414072    -0.04980
N162        N  0.11958309  0.08621761  0.93480046    -0.63840
Mn163      Mn  0.49924324  0.50042069  0.90960471     1.10660
C164        C  0.10335731  0.10482109  0.89399065     0.99140
C165        C  0.10557373  0.39539293  0.89852162     0.99220
N166        N  0.05675310  0.45066015  0.58813448    -0.06090
N167        N  0.06564581  0.41925537  0.62000973    -0.61460
N168        N  0.08928126  0.05390058  0.55602121    -0.05410
N169        N  0.12294001  0.08355645  0.56621932    -0.58190
N170        N  0.05552155  0.05484665  0.58851468    -0.06720
N171        N  0.06529322  0.08565534  0.62129630    -0.61030
N172        N  0.08991212  0.44991920  0.55507682    -0.05700
N173        N  0.12197940  0.41767394  0.56365784    -0.58210
Mn174      Mn  0.99961657  0.00238762  0.58966652     1.20190
Mn175      Mn  0.09058331  0.50217882  0.49980727     1.10090
Cl176      Cl  0.99922053  0.00148763  0.49967471    -0.86190
C177        C  0.10599346  0.39856224  0.60405305     0.96150
C178        C  0.10718507  0.10347318  0.60657877     0.95950
C179        C  0.22098252  0.22461315  0.77658967    -0.02710
C180        C  0.22077805  0.27721472  0.78019720    -0.02710
C181        C  0.22021505  0.28021338  0.72486126    -0.02710
C182        C  0.22117776  0.22729150  0.72133381    -0.02710
C183        C  0.27696415  0.22466319  0.77713439    -0.02710
C184        C  0.27742508  0.22753664  0.72164938    -0.02710
C185        C  0.27616907  0.28029239  0.72446023    -0.02710
C186        C  0.27693770  0.27759096  0.77952320    -0.02710
C187        C  0.15492442  0.16458116  0.78811237    -0.21530
C188        C  0.18859745  0.19460195  0.80798493    -0.09570
C189        C  0.19059644  0.19664736  0.85808733     0.29290
C190        C  0.16305696  0.16758782  0.88611204    -0.21530
C191        C  0.13076306  0.13733767  0.86518451    -0.09580
C192        C  0.12618646  0.13703443  0.81582278     0.29300
F193        F  0.09505892  0.10874415  0.79368631    -0.20100
H194        H  0.14935107  0.16097898  0.75109793     0.17660
H195        H  0.16643812  0.16929981  0.92432860     0.17670
F196        F  0.21776558  0.22754794  0.88067890    -0.20090
C197        C  0.13824283  0.37704412  0.68168448    -0.21530
C198        C  0.13441943  0.36731171  0.63338517    -0.09570
C199        C  0.15998814  0.33026977  0.61432171     0.29290
C200        C  0.18717383  0.30218174  0.64424226    -0.21530
C201        C  0.18927803  0.31066311  0.69351823    -0.09580
C202        C  0.16669886  0.35042450  0.71102066     0.29300
F203        F  0.17643761  0.36761553  0.75431998    -0.20100
H204        H  0.12136216  0.40726377  0.69640071     0.17660
H205        H  0.20677755  0.27382821  0.62896499     0.17670
F206        F  0.15815720  0.32094404  0.56720153    -0.20090
C207        C  0.38270895  0.15490897  0.67491881    -0.21530
C208        C  0.36647566  0.14271809  0.62964180    -0.09570
C209        C  0.32501754  0.16425469  0.61179407     0.29290
C210        C  0.29895585  0.19492318  0.64032309    -0.21530
C211        C  0.31175420  0.20227197  0.68801202    -0.09580
C212        C  0.35616060  0.18443460  0.70360268     0.29300
F213        F  0.37495354  0.19551329  0.74635504    -0.20100
H214        H  0.41560613  0.14054704  0.68899094     0.17660
H215        H  0.26696702  0.21066624  0.62596917     0.17670
F216        F  0.30888511  0.15488502  0.56744211    -0.20090
C217        C  0.11685197  0.17754255  0.64786614    -0.21530
C218        C  0.13587248  0.13533541  0.63469409    -0.09570
C219        C  0.18172293  0.12278811  0.65039520     0.29290
C220        C  0.20852056  0.15271363  0.67809201    -0.21530
C221        C  0.19160673  0.19688099  0.68848074    -0.09580
C222        C  0.14400029  0.20792510  0.67482914     0.29300
F223        F  0.12155162  0.24583643  0.69078389    -0.20100
H224        H  0.08056219  0.18673908  0.63783201     0.17660
H225        H  0.24220609  0.14068376  0.69233700     0.17670
F226        F  0.19958168  0.08066921  0.64100931    -0.20090
C227        C  0.32744499  0.38493746  0.83669737    -0.21530
C228        C  0.36794872  0.36790546  0.86005802    -0.09570
C229        C  0.38354674  0.32345060  0.85065483     0.29290
C230        C  0.35583531  0.29504188  0.82194845    -0.21530
C231        C  0.31137474  0.31003709  0.80410512    -0.09580
C232        C  0.30039211  0.35667574  0.80743032     0.29300
F233        F  0.26249280  0.37463700  0.78397581    -0.20100
H234        H  0.31690428  0.42020626  0.84101177     0.17660
H235        H  0.36870993  0.26103680  0.81475436     0.17670
F236        F  0.42466232  0.30721690  0.87027160    -0.20090
C237        C  0.30847838  0.14531929  0.79342641    -0.21530
C238        C  0.30127679  0.19012897  0.80957835    -0.09570
C239        C  0.31554358  0.20087155  0.85639101     0.29290
C240        C  0.34214626  0.16986135  0.88302308    -0.21530
C241        C  0.35487678  0.12770016  0.86381184    -0.09580
C242        C  0.33683813  0.11491280  0.81933891     0.29300
F243        F  0.34642097  0.07303990  0.80118517    -0.20100
H244        H  0.29456811  0.13465740  0.75940772     0.17660
H245        H  0.35390434  0.17925918  0.91833580     0.17670
F246        F  0.30413481  0.24108917  0.87706930    -0.20090
C247        C  0.20839905  0.32173875  0.85674667    -0.21530
C248        C  0.18864595  0.30076517  0.81654056    -0.09570
C249        C  0.13857811  0.30290988  0.81048225     0.29290
C250        C  0.11096746  0.33287596  0.83816230    -0.21530
C251        C  0.13253822  0.35880704  0.87413323    -0.09580
C252        C  0.18110469  0.35102883  0.88484020     0.29300
F253        F  0.20314556  0.37331836  0.92092350    -0.20100
H254        H  0.24514804  0.31591340  0.86680456     0.17660
H255        H  0.07311854  0.33682494  0.83050609     0.17670
F256        F  0.11698019  0.27912880  0.77541741    -0.20090
C257        C  0.28880193  0.35025686  0.67145688    -0.21530
C258        C  0.30829123  0.31257643  0.69553171    -0.09670
C259        C  0.35865672  0.30703721  0.69358319     0.29290
C260        C  0.38686864  0.33497202  0.66486978    -0.21530
C261        C  0.36561539  0.36933674  0.63767159    -0.09580
C262        C  0.31636902  0.37721650  0.64200688     0.29300
F263        F  0.29504599  0.41291589  0.61992696    -0.20100
H264        H  0.25285471  0.36165440  0.67638723     0.17660
H265        H  0.42532789  0.32972138  0.66388614     0.17670
F266        F  0.38135026  0.27615030  0.72078507    -0.20090
N267        N  0.44493295  0.94763551  0.41088294    -0.06340
N268        N  0.43674452  0.91725855  0.37741753    -0.58460
N269        N  0.40736209  0.55078315  0.44348286    -0.06020
N270        N  0.37224700  0.57941846  0.43340129    -0.60590
N271        N  0.44002660  0.55069875  0.40984954    -0.05620
N272        N  0.42726454  0.57880826  0.37570779    -0.58440
N273        N  0.41078420  0.94733720  0.44302808    -0.05300
N274        N  0.37813594  0.91698869  0.43146908    -0.60940
C275        C  0.39544312  0.89801964  0.39103763     0.95840
C276        C  0.38527277  0.59670661  0.39126478     0.95610
N277        N  0.44193196  0.55389322  0.08790221    -0.06530
N278        N  0.43345444  0.58673337  0.11882498    -0.59040
N279        N  0.41076527  0.94866529  0.05643602    -0.04640
N280        N  0.37819991  0.91817850  0.06700444    -0.60290
N281        N  0.44443237  0.94943282  0.08912344    -0.06550
N282        N  0.43573486  0.91909897  0.12224642    -0.59300
N283        N  0.40818206  0.55308807  0.05529214    -0.04290
N284        N  0.37609417  0.58554982  0.06342510    -0.60380
Mn285      Mn  0.40797166  0.49983108  0.49970756     1.18440
C286        C  0.39247520  0.60650140  0.10308492     0.97920
C287        C  0.39447563  0.89961176  0.10781174     0.98580
N288        N  0.05440740  0.55352076  0.41122940    -0.06570
N289        N  0.06284128  0.58440451  0.37878791    -0.62880
N290        N  0.08995956  0.94998557  0.44441102    -0.05380
N291        N  0.12155710  0.91709830  0.43771342    -0.63560
N292        N  0.05678775  0.94895821  0.41136402    -0.06080
N293        N  0.06507986  0.91509263  0.38145181    -0.63150
N294        N  0.08788192  0.55442519  0.44414038    -0.04980
N295        N  0.11957949  0.58621962  0.43480005    -0.63840
Mn296      Mn  0.49923955  0.00042268  0.40960480     1.10660
C297        C  0.10335350  0.60482329  0.39399033     0.99140
C298        C  0.10557134  0.89539647  0.39851854     0.99220
N299        N  0.05675629  0.95065750  0.08813282    -0.06090
N300        N  0.06564821  0.91925119  0.12000651    -0.61460
N301        N  0.08928451  0.55389841  0.05602128    -0.05410
N302        N  0.12294309  0.58355440  0.06621945    -0.58190
N303        N  0.05552490  0.55484401  0.08851487    -0.06720
N304        N  0.06529645  0.58565252  0.12129666    -0.61030
N305        N  0.08991545  0.94991736  0.05507537    -0.05700
N306        N  0.12198214  0.91767129  0.06365490    -0.58210
Mn307      Mn  0.99962006  0.50238488  0.08966642     1.20190
Mn308      Mn  0.09058673  0.00217724  0.99980716     1.10090
Cl309      Cl  0.99922392  0.50148593  0.99967458    -0.86190
C310        C  0.10599554  0.89855814  0.10404896     0.96150
C311        C  0.10718809  0.60347069  0.10657907     0.95950
C312        C  0.22098103  0.72461421  0.27658934    -0.02710
C313        C  0.22077748  0.77721589  0.28019522    -0.02710
C314        C  0.22021644  0.78021273  0.22485915    -0.02710
C315        C  0.22117832  0.72729081  0.22133342    -0.02710
C316        C  0.27696267  0.72466344  0.27713556    -0.02710
C317        C  0.27742564  0.72753515  0.22165050    -0.02710
C318        C  0.27617045  0.78029098  0.22445961    -0.02710
C319        C  0.27693723  0.77759124  0.27952271    -0.02710
C320        C  0.15492226  0.66458238  0.28811176    -0.21530
C321        C  0.18859443  0.69460407  0.30798453    -0.09570
C322        C  0.19059145  0.69665098  0.35808696     0.29290
C323        C  0.16305168  0.66759156  0.38611169    -0.21530
C324        C  0.13075912  0.63734013  0.36518408    -0.09580
C325        C  0.12618383  0.63703590  0.31582222     0.29300
F326        F  0.09505732  0.60874468  0.29368562    -0.20100
H327        H  0.14935023  0.66097910  0.25109777     0.17660
H328        H  0.16643162  0.66930458  0.42432826     0.17670
F329        F  0.21775901  0.72755283  0.38067852    -0.20090
C330        C  0.13824617  0.87704262  0.18167966    -0.21530
C331        C  0.13442193  0.86730842  0.13338092    -0.09570
C332        C  0.15999051  0.83026613  0.11431809     0.29290
C333        C  0.18717624  0.80217889  0.14423928    -0.21530
C334        C  0.18928044  0.81066172  0.19351499    -0.09580
C335        C  0.16670232  0.85042400  0.21101623     0.29300
F336        F  0.17644211  0.86761675  0.25431454    -0.20100
H337        H  0.12136603  0.90726291  0.19639507     0.17660
H338        H  0.20677977  0.77382482  0.12896284     0.17670
F339        F  0.15815938  0.82093936  0.06719812    -0.20090
C340        C  0.38270946  0.65490427  0.17492309    -0.21530
C341        C  0.36647738  0.64271391  0.12964538    -0.09570
C342        C  0.32502018  0.66425140  0.11179675     0.29290
C343        C  0.29895825  0.69492032  0.14032512    -0.21530
C344        C  0.31175534  0.70226910  0.18801439    -0.09580
C345        C  0.35616098  0.68443082  0.20360624     0.29300
F346        F  0.37495317  0.69550990  0.24635884    -0.20100
H347        H  0.41560599  0.64054169  0.18899598     0.17660
H348        H  0.26697019  0.71066397  0.12597028     0.17670
F349        F  0.30888898  0.65488245  0.06744420    -0.20090
C350        C  0.11685434  0.67754078  0.14786458    -0.21530
C351        C  0.13587499  0.63533327  0.13469416    -0.09570
C352        C  0.18172493  0.62278602  0.15039666     0.29290
C353        C  0.20852200  0.65271206  0.17809327    -0.21530
C354        C  0.19160808  0.69687971  0.18848047    -0.09580
C355        C  0.14400207  0.70792374  0.17482753     0.29300
F356        F  0.12155319  0.74583546  0.19078099    -0.20100
H357        H  0.08056487  0.68673723  0.13782932     0.17660
H358        H  0.24220709  0.64068232  0.19233932     0.17670
F359        F  0.19958364  0.58066678  0.14101232    -0.20090
C360        C  0.32744469  0.88493886  0.33669424    -0.21530
C361        C  0.36794578  0.86790650  0.36005901    -0.09570
C362        C  0.38354263  0.82345060  0.35065958     0.29290
C363        C  0.35583264  0.79504164  0.32195215    -0.21530
C364        C  0.31137397  0.81003744  0.30410484    -0.09580
C365        C  0.30039283  0.85667659  0.30742685     0.29300
F366        F  0.26249598  0.87463796  0.28396865    -0.20100
H367        H  0.31690521  0.92020829  0.34100578     0.17660
H368        H  0.36870688  0.76103605  0.31476018     0.17670
F369        F  0.42465581  0.80721634  0.37028072    -0.20090
C370        C  0.30847431  0.64531968  0.29342924    -0.21530
C371        C  0.30127320  0.69012951  0.30958063    -0.09570
C372        C  0.31553847  0.70087240  0.35639358     0.29290
C373        C  0.34214123  0.66986266  0.38302598    -0.21530
C374        C  0.35487255  0.62770173  0.36381463    -0.09580
C375        C  0.33683379  0.61491357  0.31934211     0.29300
F376        F  0.34641659  0.57304042  0.30118900    -0.20100
H377        H  0.29456436  0.63465750  0.25941056     0.17660
H378        H  0.35389899  0.67926070  0.41833874     0.17670
F379        F  0.30412892  0.74109008  0.37707137    -0.20090
C380        C  0.20839755  0.82174301  0.35674287    -0.21530
C381        C  0.18864487  0.80076849  0.31653704    -0.09570
C382        C  0.13857713  0.80291434  0.31047759     0.29290
C383        C  0.11096633  0.83288096  0.33815708    -0.21530
C384        C  0.13253658  0.85881174  0.37412863    -0.09580
C385        C  0.18110303  0.85103365  0.38483572     0.29300
F386        F  0.20314365  0.87332341  0.42091901    -0.20100
H387        H  0.24514625  0.81591747  0.36680158     0.17660
H388        H  0.07311752  0.83683012  0.33050039     0.17670
F389        F  0.11697945  0.77913339  0.27541249    -0.20090
C390        C  0.28880540  0.85025297  0.17145331    -0.21530
C391        C  0.30829388  0.81257373  0.19553070    -0.09670
C392        C  0.35865950  0.80703453  0.19358415     0.29290
C393        C  0.38687247  0.83496867  0.16487067    -0.21530
C394        C  0.36562000  0.86933236  0.13767018    -0.09580
C395        C  0.31637335  0.87721158  0.14200319     0.29300
F396        F  0.29505062  0.91290973  0.11992085    -0.20100
H397        H  0.25285800  0.86165061  0.17638159     0.17660
H398        H  0.42533180  0.82971832  0.16388872     0.17670
F399        F  0.38135191  0.77614820  0.22078784    -0.20090
N400        N  0.44493674  0.94763345  0.91088265    -0.06340
N401        N  0.43674828  0.91725653  0.87741718    -0.58460
N402        N  0.40736548  0.55078166  0.94348195    -0.06020
N403        N  0.37225035  0.57941677  0.93339943    -0.60590
N404        N  0.44003016  0.55069679  0.90984870    -0.05620
N405        N  0.42726824  0.57880572  0.87570631    -0.58440
N406        N  0.41078779  0.94733541  0.94302760    -0.05300
N407        N  0.37813938  0.91698715  0.93146836    -0.60940
C408        C  0.39544659  0.89801794  0.89103699     0.95840
C409        C  0.38527625  0.59670427  0.89126251     0.95610
N410        N  0.44192880  0.55389598  0.58790095    -0.06530
N411        N  0.43345196  0.58673722  0.61882252    -0.59040
N412        N  0.41076128  0.94866815  0.55643650    -0.04640
N413        N  0.37819515  0.91818233  0.56700559    -0.60290
N414        N  0.44442842  0.94943583  0.58912389    -0.06550
N415        N  0.43573027  0.91910284  0.62224748    -0.59300
N416        N  0.40817871  0.55309026  0.55529115    -0.04290
N417        N  0.37609133  0.58555267  0.56342299    -0.60380
Mn418      Mn  0.40797516  0.49982924  0.99970737     1.18440
C419        C  0.39247294  0.60650522  0.60308191     0.97920
C420        C  0.39447061  0.89961620  0.60781321     0.98580
N421        N  0.05441102  0.55351880  0.91122960    -0.06570
N422        N  0.06284510  0.58440241  0.87878807    -0.62880
N423        N  0.08996323  0.94998407  0.94441153    -0.05380
N424        N  0.12155999  0.91709591  0.93771549    -0.63560
N425        N  0.05679137  0.94895615  0.91136465    -0.06080
N426        N  0.06508271  0.91508925  0.88145393    -0.63150
N427        N  0.08788537  0.55442337  0.94414072    -0.04980
N428        N  0.11958310  0.58621761  0.93480045    -0.63840
Mn429      Mn  0.49924325  0.00042064  0.90960471     1.10660
C430        C  0.10335731  0.60482109  0.89399063     0.99140
C431        C  0.10557371  0.89539294  0.89852161     0.99220
N432        N  0.05675308  0.95066019  0.58813448    -0.06090
N433        N  0.06564579  0.91925540  0.62000972    -0.61460
N434        N  0.08928126  0.55390054  0.55602121    -0.05410
N435        N  0.12294000  0.58355643  0.56621931    -0.58190
N436        N  0.05552155  0.55484661  0.58851468    -0.06720
N437        N  0.06529321  0.58565531  0.62129629    -0.61030
N438        N  0.08991210  0.94991924  0.55507682    -0.05700
N439        N  0.12197938  0.91767397  0.56365783    -0.58210
Mn440      Mn  0.99961658  0.50238757  0.58966652     1.20190
Mn441      Mn  0.09058330  0.00217886  0.49980727     1.10090
Cl442      Cl  0.99922054  0.50148758  0.49967471    -0.86190
C443        C  0.10599344  0.89856227  0.60405303     0.96150
C444        C  0.10718506  0.60347316  0.60657876     0.95950
C445        C  0.22098248  0.72461316  0.77658965    -0.02710
C446        C  0.22077802  0.77721473  0.78019717    -0.02710
C447        C  0.22021502  0.78021339  0.72486123    -0.02710
C448        C  0.22117773  0.72729151  0.72133379    -0.02710
C449        C  0.27696411  0.72466319  0.77713436    -0.02710
C450        C  0.27742504  0.72753664  0.72164936    -0.02710
C451        C  0.27616903  0.78029239  0.72446020    -0.02710
C452        C  0.27693767  0.77759097  0.77952317    -0.02710
C453        C  0.15492438  0.66458118  0.78811235    -0.21530
C454        C  0.18859741  0.69460196  0.80798491    -0.09570
C455        C  0.19059641  0.69664738  0.85808731     0.29290
C456        C  0.16305694  0.66758783  0.88611202    -0.21530
C457        C  0.13076305  0.63733767  0.86518450    -0.09580
C458        C  0.12618644  0.63703444  0.81582277     0.29300
F459        F  0.09505890  0.60874415  0.79368630    -0.20100
H460        H  0.14935102  0.66097900  0.75109792     0.17660
H461        H  0.16643811  0.66929982  0.92432858     0.17670
F462        F  0.21776553  0.72754796  0.88067888    -0.20090
C463        C  0.13824281  0.87704414  0.68168446    -0.21530
C464        C  0.13441940  0.86731173  0.63338515    -0.09570
C465        C  0.15998810  0.83026979  0.61432169     0.29290
C466        C  0.18717379  0.80218176  0.64424223    -0.21530
C467        C  0.18927800  0.81066312  0.69351821    -0.09580
C468        C  0.16669884  0.85042452  0.71102064     0.29300
F469        F  0.17643760  0.86761555  0.75431995    -0.20100
H470        H  0.12136215  0.90726380  0.69640070     0.17660
H471        H  0.20677750  0.77382822  0.62896497     0.17670
F472        F  0.15815715  0.82094406  0.56720151    -0.20090
C473        C  0.38270892  0.65490897  0.67491881    -0.21530
C474        C  0.36647563  0.64271809  0.62964179    -0.09570
C475        C  0.32501751  0.66425468  0.61179406     0.29290
C476        C  0.29895581  0.69492317  0.64032307    -0.21530
C477        C  0.31175416  0.70227197  0.68801200    -0.09580
C478        C  0.35616056  0.68443460  0.70360267     0.29300
F479        F  0.37495350  0.69551330  0.74635503    -0.20100
H480        H  0.41560610  0.64054704  0.68899094     0.17660
H481        H  0.26696699  0.71066622  0.62596916     0.17670
F482        F  0.30888508  0.65488500  0.56744210    -0.20090
C483        C  0.11685194  0.67754255  0.64786610    -0.21530
C484        C  0.13587246  0.63533540  0.63469408    -0.09570
C485        C  0.18172291  0.62278810  0.65039520     0.29290
C486        C  0.20852053  0.65271363  0.67809200    -0.21530
C487        C  0.19160670  0.69688099  0.68848072    -0.09580
C488        C  0.14400026  0.70792510  0.67482910     0.29300
F489        F  0.12155159  0.74583644  0.69078384    -0.20100
H490        H  0.08056217  0.68673907  0.63783197     0.17660
H491        H  0.24220606  0.64068376  0.69233700     0.17670
F492        F  0.19958165  0.58066919  0.64100933    -0.20090
C493        C  0.32744498  0.88493746  0.83669735    -0.21530
C494        C  0.36794870  0.86790545  0.86005800    -0.09570
C495        C  0.38354671  0.82345058  0.85065482     0.29290
C496        C  0.35583528  0.79504187  0.82194843    -0.21530
C497        C  0.31137471  0.81003709  0.80410509    -0.09580
C498        C  0.30039210  0.85667574  0.80743030     0.29300
F499        F  0.26249279  0.87463701  0.78397578    -0.20100
H500        H  0.31690428  0.92020626  0.84101175     0.17660
H501        H  0.36870989  0.76103678  0.81475433     0.17670
F502        F  0.42466229  0.80721687  0.87027159    -0.20090
C503        C  0.30847834  0.64531930  0.79342639    -0.21530
C504        C  0.30127674  0.69012898  0.80957834    -0.09570
C505        C  0.31554353  0.70087156  0.85639099     0.29290
C506        C  0.34214622  0.66986137  0.88302307    -0.21530
C507        C  0.35487674  0.62770018  0.86381183    -0.09580
C508        C  0.33683809  0.61491281  0.81933890     0.29300
F509        F  0.34642095  0.57303991  0.80118516    -0.20100
H510        H  0.29456808  0.63465740  0.75940770     0.17660
H511        H  0.35390429  0.67925920  0.91833579     0.17670
F512        F  0.30413476  0.74108919  0.87706928    -0.20090
C513        C  0.20839903  0.82173876  0.85674664    -0.21530
C514        C  0.18864592  0.80076519  0.81654053    -0.09570
C515        C  0.13857808  0.80290990  0.81048222     0.29290
C516        C  0.11096744  0.83287598  0.83816227    -0.21530
C517        C  0.13253820  0.85880706  0.87413321    -0.09580
C518        C  0.18110467  0.85102884  0.88484018     0.29300
F519        F  0.20314554  0.87331837  0.92092348    -0.20100
H520        H  0.24514802  0.81591341  0.86680453     0.17660
H521        H  0.07311851  0.83682497  0.83050607     0.17670
F522        F  0.11698016  0.77912883  0.77541737    -0.20090
C523        C  0.28880191  0.85025686  0.67145684    -0.21530
C524        C  0.30829121  0.81257643  0.69553169    -0.09670
C525        C  0.35865669  0.80703721  0.69358318     0.29290
C526        C  0.38686863  0.83497202  0.66486978    -0.21530
C527        C  0.36561539  0.86933675  0.63767158    -0.09580
C528        C  0.31636901  0.87721651  0.64200687     0.29300
F529        F  0.29504598  0.91291589  0.61992694    -0.20100
H530        H  0.25285469  0.86165440  0.67638718     0.17660
H531        H  0.42532787  0.82972139  0.66388615     0.17670
F532        F  0.38135023  0.77615030  0.72078506    -0.20090
N533        N  0.94493295  0.44763549  0.41088293    -0.06340
N534        N  0.93674452  0.41725854  0.37741752    -0.58460
N535        N  0.90736209  0.05078318  0.44348286    -0.06020
N536        N  0.87224700  0.07941848  0.43340128    -0.60590
N537        N  0.94002660  0.05069877  0.40984953    -0.05620
N538        N  0.92726454  0.07880827  0.37570777    -0.58440
N539        N  0.91078419  0.44733718  0.44302807    -0.05300
N540        N  0.87813594  0.41698867  0.43146906    -0.60940
C541        C  0.89544312  0.39801963  0.39103761     0.95840
C542        C  0.88527276  0.09670662  0.39126476     0.95610
N543        N  0.94193196  0.05389320  0.08790221    -0.06530
N544        N  0.93345445  0.08673336  0.11882497    -0.59040
N545        N  0.91076529  0.44866531  0.05643602    -0.04640
N546        N  0.87819993  0.41817852  0.06700442    -0.60290
N547        N  0.94443238  0.44943284  0.08912344    -0.06550
N548        N  0.93573487  0.41909899  0.12224641    -0.59300
N549        N  0.90818206  0.05308805  0.05529214    -0.04290
N550        N  0.87609418  0.08554981  0.06342509    -0.60380
Mn551      Mn  0.90797165  0.99983111  0.49970756     1.18440
C552        C  0.89247520  0.10650139  0.10308490     0.97920
C553        C  0.89447564  0.39961177  0.10781173     0.98580
N554        N  0.55440740  0.05352078  0.41122939    -0.06570
N555        N  0.56284128  0.08440453  0.37878790    -0.62880
N556        N  0.58995957  0.44998555  0.44441102    -0.05380
N557        N  0.62155711  0.41709829  0.43771341    -0.63560
N558        N  0.55678775  0.44895820  0.41136402    -0.06080
N559        N  0.56507987  0.41509263  0.38145180    -0.63150
N560        N  0.58788192  0.05442522  0.44414037    -0.04980
N561        N  0.61957949  0.08621965  0.43480004    -0.63840
Mn562      Mn  0.99923955  0.50042266  0.40960480     1.10660
C563        C  0.60335350  0.10482331  0.39399032     0.99140
C564        C  0.60557135  0.39539646  0.39851853     0.99220
N565        N  0.55675629  0.45065752  0.08813282    -0.06090
N566        N  0.56564820  0.41925120  0.12000650    -0.61460
N567        N  0.58928450  0.05389838  0.05602128    -0.05410
N568        N  0.62294308  0.08355437  0.06621944    -0.58190
N569        N  0.55552490  0.05484399  0.08851487    -0.06720
N570        N  0.56529645  0.08565250  0.12129665    -0.61030
N571        N  0.58991545  0.44991738  0.05507537    -0.05700
N572        N  0.62198213  0.41767131  0.06365489    -0.58210
Mn573      Mn  0.49962006  0.00238486  0.08966642     1.20190
Mn574      Mn  0.59058673  0.50217727  0.99980715     1.10090
Cl575      Cl  0.49922391  0.00148591  0.99967458    -0.86190
C576        C  0.60599553  0.39855815  0.10404895     0.96150
C577        C  0.60718809  0.10347067  0.10657906     0.95950
C578        C  0.72098104  0.22461421  0.27658931    -0.02710
C579        C  0.72077749  0.27721588  0.28019519    -0.02710
C580        C  0.72021644  0.28021273  0.22485911    -0.02710
C581        C  0.72117833  0.22729080  0.22133339    -0.02710
C582        C  0.77696267  0.22466344  0.27713552    -0.02710
C583        C  0.77742564  0.22753515  0.22165046    -0.02710
C584        C  0.77617045  0.28029098  0.22445957    -0.02710
C585        C  0.77693723  0.27759124  0.27952267    -0.02710
C586        C  0.65492233  0.16458232  0.28811173    -0.21530
C587        C  0.68859444  0.19460406  0.30798450    -0.09570
C588        C  0.69059142  0.19665101  0.35808693     0.29290
C589        C  0.66305165  0.16759160  0.38611167    -0.21530
C590        C  0.63075913  0.13734013  0.36518405    -0.09580
C591        C  0.62618389  0.13703584  0.31582219     0.29300
F592        F  0.59505743  0.10874457  0.29368560    -0.20100
H593        H  0.64935035  0.16097898  0.25109774     0.17660
H594        H  0.66643156  0.16930466  0.42432824     0.17670
F595        F  0.71775895  0.22755289  0.38067849    -0.20090
C596        C  0.63824617  0.37704263  0.18167964    -0.21530
C597        C  0.63442191  0.36730842  0.13338091    -0.09570
C598        C  0.65999046  0.33026612  0.11431807     0.29290
C599        C  0.68717619  0.30217887  0.14423926    -0.21530
C600        C  0.68928042  0.31066171  0.19351496    -0.09580
C601        C  0.66670232  0.35042400  0.21101620     0.29300
F602        F  0.67644215  0.36761676  0.25431451    -0.20100
H603        H  0.62136606  0.40726293  0.19639505     0.17660
H604        H  0.70677970  0.27382479  0.12896281     0.17670
F605        F  0.65815931  0.32093934  0.06719810    -0.20090
C606        C  0.88270948  0.15490429  0.17492305    -0.21530
C607        C  0.86647740  0.14271391  0.12964535    -0.09570
C608        C  0.82502019  0.16425141  0.11179672     0.29290
C609        C  0.79895827  0.19492033  0.14032508    -0.21530
C610        C  0.81175535  0.20226911  0.18801435    -0.09580
C611        C  0.85616100  0.18443084  0.20360620     0.29300
F612        F  0.87495318  0.19550993  0.24635880    -0.20100
H613        H  0.91560601  0.14054171  0.18899595     0.17660
H614        H  0.76697021  0.21066397  0.12597023     0.17670
F615        F  0.80888899  0.15488244  0.06744417    -0.20090
C616        C  0.61685432  0.17754075  0.14786460    -0.21530
C617        C  0.63587498  0.13533325  0.13469415    -0.09570
C618        C  0.68172494  0.12278602  0.15039661     0.29290
C619        C  0.70852202  0.15271206  0.17809321    -0.21530
C620        C  0.69160808  0.19687970  0.18848044    -0.09580
C621        C  0.64400205  0.20792372  0.17482754     0.29300
F622        F  0.62155317  0.24583543  0.19078101    -0.20100
H623        H  0.58056484  0.18673718  0.13782936     0.17660
H624        H  0.74220711  0.14068233  0.19233924     0.17670
F625        F  0.69958367  0.08066679  0.14101224    -0.20090
C626        C  0.82744471  0.38493886  0.33669418    -0.21530
C627        C  0.86794578  0.36790649  0.36005898    -0.09570
C628        C  0.88354261  0.32345058  0.35065959     0.29290
C629        C  0.85583262  0.29504162  0.32195215    -0.21530
C630        C  0.81137398  0.31003743  0.30410480    -0.09580
C631        C  0.80039286  0.35667658  0.30742679     0.29300
F632        F  0.76249604  0.37463797  0.28396856    -0.20100
H633        H  0.81690526  0.42020829  0.34100569     0.17660
H634        H  0.86870686  0.26103602  0.31476020     0.17670
F635        F  0.92465577  0.30721630  0.37028077    -0.20090
C636        C  0.80847434  0.14531969  0.29342920    -0.21530
C637        C  0.80127320  0.19012951  0.30958059    -0.09570
C638        C  0.81553843  0.20087239  0.35639356     0.29290
C639        C  0.84214119  0.16986265  0.38302596    -0.21530
C640        C  0.85487254  0.12770174  0.36381461    -0.09580
C641        C  0.83683382  0.11491358  0.31934207     0.29300
F642        F  0.84641665  0.07304044  0.30118895    -0.20100
H643        H  0.79456442  0.13465751  0.25941050     0.17660
H644        H  0.85389891  0.17926068  0.41833874     0.17670
F645        F  0.80412886  0.24109006  0.37707135    -0.20090
C646        C  0.70839757  0.32174304  0.35674282    -0.21530
C647        C  0.68864488  0.30076850  0.31653700    -0.09570
C648        C  0.63857714  0.30291434  0.31047756     0.29290
C649        C  0.61096634  0.33288096  0.33815706    -0.21530
C650        C  0.63253659  0.35881174  0.37412860    -0.09580
C651        C  0.68110305  0.35103367  0.38483567     0.29300
F652        F  0.70314368  0.37332344  0.42091895    -0.20100
H653        H  0.74514626  0.31591750  0.36680152     0.17660
H654        H  0.57311752  0.33683011  0.33050038     0.17670
F655        F  0.61697945  0.27913338  0.27541247    -0.20090
C656        C  0.78880539  0.35025293  0.17145321    -0.21530
C657        C  0.80829388  0.31257373  0.19553066    -0.09670
C658        C  0.85865951  0.30703455  0.19358414     0.29290
C659        C  0.88687248  0.33496870  0.16487068    -0.21530
C660        C  0.86562001  0.36933236  0.13767015    -0.09580
C661        C  0.81637335  0.37721155  0.14200311     0.29300
F662        F  0.79505061  0.41290966  0.11992072    -0.20100
H663        H  0.75285798  0.36165055  0.17638144     0.17660
H664        H  0.92533181  0.32971837  0.16388876     0.17670
F665        F  0.88135191  0.27614824  0.22078786    -0.20090
N666        N  0.94493675  0.44763347  0.91088266    -0.06340
N667        N  0.93674828  0.41725654  0.87741719    -0.58460
N668        N  0.90736548  0.05078163  0.94348195    -0.06020
N669        N  0.87225035  0.07941675  0.93339944    -0.60590
N670        N  0.94003016  0.05069677  0.90984870    -0.05620
N671        N  0.92726824  0.07880571  0.87570632    -0.58440
N672        N  0.91078780  0.44733543  0.94302760    -0.05300
N673        N  0.87813939  0.41698717  0.93146836    -0.60940
C674        C  0.89544660  0.39801795  0.89103700     0.95840
C675        C  0.88527626  0.09670426  0.89126252     0.95610
N676        N  0.94192880  0.05389601  0.58790095    -0.06530
N677        N  0.93345197  0.08673724  0.61882252    -0.59040
N678        N  0.91076128  0.44866812  0.55643650    -0.04640
N679        N  0.87819515  0.41818229  0.56700558    -0.60290
N680        N  0.94442842  0.44943581  0.58912388    -0.06550
N681        N  0.93573027  0.41910281  0.62224748    -0.59300
N682        N  0.90817872  0.05309030  0.55529115    -0.04290
N683        N  0.87609134  0.08555270  0.56342299    -0.60380
Mn684      Mn  0.90797516  0.99982921  0.99970738     1.18440
C685        C  0.89247296  0.10650526  0.60308191     0.97920
C686        C  0.89447061  0.39961617  0.60781320     0.98580
N687        N  0.55441102  0.05351878  0.91122960    -0.06570
N688        N  0.56284510  0.08440239  0.87878808    -0.62880
N689        N  0.58996323  0.44998409  0.94441153    -0.05380
N690        N  0.62155999  0.41709593  0.93771549    -0.63560
N691        N  0.55679137  0.44895617  0.91136465    -0.06080
N692        N  0.56508272  0.41508926  0.88145393    -0.63150
N693        N  0.58788537  0.05442335  0.94414072    -0.04980
N694        N  0.61958310  0.08621759  0.93480046    -0.63840
Mn695      Mn  0.99924325  0.50042066  0.90960471     1.10660
C696        C  0.60335731  0.10482107  0.89399065     0.99140
C697        C  0.60557371  0.39539295  0.89852162     0.99220
N698        N  0.55675309  0.45066017  0.58813448    -0.06090
N699        N  0.56564579  0.41925539  0.62000974    -0.61460
N700        N  0.58928127  0.05390056  0.55602121    -0.05410
N701        N  0.62294000  0.08355645  0.56621931    -0.58190
N702        N  0.55552155  0.05484664  0.58851468    -0.06720
N703        N  0.56529322  0.08565533  0.62129630    -0.61030
N704        N  0.58991211  0.44991922  0.55507682    -0.05700
N705        N  0.62197938  0.41767395  0.56365784    -0.58210
Mn706      Mn  0.49961658  0.00238759  0.58966652     1.20190
Mn707      Mn  0.59058330  0.50217884  0.49980727     1.10090
Cl708      Cl  0.49922055  0.00148760  0.49967471    -0.86190
C709        C  0.60599344  0.39856225  0.60405305     0.96150
C710        C  0.60718507  0.10347318  0.60657876     0.95950
C711        C  0.72098249  0.22461316  0.77658968    -0.02710
C712        C  0.72077802  0.27721473  0.78019720    -0.02710
C713        C  0.72021502  0.28021338  0.72486126    -0.02710
C714        C  0.72117773  0.22729151  0.72133382    -0.02710
C715        C  0.77696412  0.22466319  0.77713439    -0.02710
C716        C  0.77742505  0.22753664  0.72164939    -0.02710
C717        C  0.77616904  0.28029239  0.72446023    -0.02710
C718        C  0.77693767  0.27759097  0.77952320    -0.02710
C719        C  0.65492441  0.16458115  0.78811237    -0.21530
C720        C  0.68859742  0.19460195  0.80798493    -0.09570
C721        C  0.69059641  0.19664737  0.85808734     0.29290
C722        C  0.66305694  0.16758782  0.88611204    -0.21530
C723        C  0.63076306  0.13733765  0.86518451    -0.09580
C724        C  0.62618646  0.13703441  0.81582279     0.29300
F725        F  0.59505894  0.10874411  0.79368631    -0.20100
H726        H  0.64935107  0.16097896  0.75109794     0.17660
H727        H  0.66643810  0.16929981  0.92432860     0.17670
F728        F  0.71776553  0.22754796  0.88067891    -0.20090
C729        C  0.63824282  0.37704414  0.68168448    -0.21530
C730        C  0.63441941  0.36731172  0.63338517    -0.09570
C731        C  0.65998810  0.33026978  0.61432172     0.29290
C732        C  0.68717378  0.30218174  0.64424226    -0.21530
C733        C  0.68927800  0.31066311  0.69351824    -0.09580
C734        C  0.66669885  0.35042451  0.71102066     0.29300
F735        F  0.67643760  0.36761555  0.75431998    -0.20100
H736        H  0.62136216  0.40726380  0.69640071     0.17660
H737        H  0.70677750  0.27382820  0.62896500     0.17670
F738        F  0.65815715  0.32094404  0.56720153    -0.20090
C739        C  0.88270893  0.15490898  0.67491882    -0.21530
C740        C  0.86647565  0.14271812  0.62964180    -0.09570
C741        C  0.82501753  0.16425472  0.61179408     0.29290
C742        C  0.79895583  0.19492320  0.64032309    -0.21530
C743        C  0.81175417  0.20227198  0.68801203    -0.09580
C744        C  0.85616057  0.18443461  0.70360269     0.29300
F745        F  0.87495351  0.19551330  0.74635505    -0.20100
H746        H  0.91560611  0.14054706  0.68899095     0.17660
H747        H  0.76696701  0.21066626  0.62596918     0.17670
F748        F  0.80888510  0.15488505  0.56744211    -0.20090
C749        C  0.61685195  0.17754255  0.64786614    -0.21530
C750        C  0.63587247  0.13533541  0.63469409    -0.09570
C751        C  0.68172292  0.12278812  0.65039519     0.29290
C752        C  0.70852055  0.15271364  0.67809200    -0.21530
C753        C  0.69160671  0.19688099  0.68848074    -0.09580
C754        C  0.64400026  0.20792510  0.67482914     0.29300
F755        F  0.62155159  0.24583642  0.69078390    -0.20100
H756        H  0.58056217  0.18673907  0.63783202     0.17660
H757        H  0.74220608  0.14068377  0.69233699     0.17670
F758        F  0.69958168  0.08066922  0.64100929    -0.20090
C759        C  0.82744498  0.38493746  0.83669737    -0.21530
C760        C  0.86794870  0.36790546  0.86005802    -0.09570
C761        C  0.88354671  0.32345059  0.85065484     0.29290
C762        C  0.85583528  0.29504187  0.82194846    -0.21530
C763        C  0.81137471  0.31003709  0.80410512    -0.09580
C764        C  0.80039210  0.35667574  0.80743032     0.29300
F765        F  0.76249280  0.37463701  0.78397580    -0.20100
H766        H  0.81690428  0.42020626  0.84101176     0.17660
H767        H  0.86870989  0.26103678  0.81475437     0.17670
F768        F  0.92466229  0.30721688  0.87027162    -0.20090
C769        C  0.80847835  0.14531930  0.79342641    -0.21530
C770        C  0.80127675  0.19012898  0.80957836    -0.09570
C771        C  0.81554354  0.20087156  0.85639102     0.29290
C772        C  0.84214622  0.16986136  0.88302309    -0.21530
C773        C  0.85487674  0.12770017  0.86381185    -0.09580
C774        C  0.83683810  0.11491280  0.81933892     0.29300
F775        F  0.84642095  0.07303991  0.80118517    -0.20100
H776        H  0.79456809  0.13465741  0.75940772     0.17660
H777        H  0.85390430  0.17925918  0.91833581     0.17670
F778        F  0.80413476  0.24108918  0.87706931    -0.20090
C779        C  0.70839903  0.32173877  0.85674667    -0.21530
C780        C  0.68864592  0.30076518  0.81654056    -0.09570
C781        C  0.63857808  0.30290990  0.81048225     0.29290
C782        C  0.61096744  0.33287598  0.83816230    -0.21530
C783        C  0.63253820  0.35880707  0.87413322    -0.09580
C784        C  0.68110467  0.35102885  0.88484020     0.29300
F785        F  0.70314555  0.37331839  0.92092349    -0.20100
H786        H  0.74514802  0.31591341  0.86680456     0.17660
H787        H  0.57311851  0.33682498  0.83050609     0.17670
F788        F  0.61698017  0.27912882  0.77541741    -0.20090
C789        C  0.78880191  0.35025684  0.67145685    -0.21530
C790        C  0.80829121  0.31257643  0.69553171    -0.09670
C791        C  0.85865670  0.30703721  0.69358321     0.29290
C792        C  0.88686863  0.33497202  0.66486981    -0.21530
C793        C  0.86561539  0.36933673  0.63767159    -0.09580
C794        C  0.81636901  0.37721648  0.64200686     0.29300
F795        F  0.79504598  0.41291585  0.61992691    -0.20100
H796        H  0.75285469  0.36165438  0.67638718     0.17660
H797        H  0.92532788  0.32972139  0.66388618     0.17670
F798        F  0.88135024  0.27615031  0.72078511    -0.20090
N799        N  0.94493294  0.94763554  0.41088293    -0.06340
N800        N  0.93674451  0.91725859  0.37741753    -0.58460
N801        N  0.90736210  0.55078312  0.44348285    -0.06020
N802        N  0.87224701  0.57941843  0.43340128    -0.60590
N803        N  0.94002662  0.55069871  0.40984953    -0.05620
N804        N  0.92726456  0.57880823  0.37570778    -0.58440
N805        N  0.91078418  0.94733724  0.44302808    -0.05300
N806        N  0.87813593  0.91698872  0.43146907    -0.60940
C807        C  0.89544312  0.89801967  0.39103762     0.95840
C808        C  0.88527279  0.59670658  0.39126477     0.95610
N809        N  0.94193197  0.55389319  0.08790221    -0.06530
N810        N  0.93345446  0.58673335  0.11882499    -0.59040
N811        N  0.91076528  0.94866531  0.05643603    -0.04640
N812        N  0.87819992  0.91817851  0.06700444    -0.60290
N813        N  0.94443238  0.94943285  0.08912344    -0.06550
N814        N  0.93573487  0.91909900  0.12224642    -0.59300
N815        N  0.90818207  0.55308805  0.05529214    -0.04290
N816        N  0.87609420  0.58554981  0.06342510    -0.60380
Mn817      Mn  0.90797166  0.49983105  0.49970755     1.18440
C818        C  0.89247522  0.60650138  0.10308492     0.97920
C819        C  0.89447564  0.89961177  0.10781174     0.98580
N820        N  0.55440739  0.55352079  0.41122941    -0.06570
N821        N  0.56284128  0.58440455  0.37878792    -0.62880
N822        N  0.58995958  0.94998555  0.44441103    -0.05380
N823        N  0.62155713  0.91709828  0.43771342    -0.63560
N824        N  0.55678776  0.94895818  0.41136402    -0.06080
N825        N  0.56507988  0.91509260  0.38145182    -0.63150
N826        N  0.58788192  0.55442522  0.44414039    -0.04980
N827        N  0.61957949  0.58621964  0.43480006    -0.63840
Mn828      Mn  0.99923954  0.00042271  0.40960480     1.10660
C829        C  0.60335351  0.60482331  0.39399034     0.99140
C830        C  0.60557137  0.89539645  0.39851855     0.99220
N831        N  0.55675629  0.95065747  0.08813282    -0.06090
N832        N  0.56564821  0.91925115  0.12000651    -0.61460
N833        N  0.58928450  0.55389843  0.05602128    -0.05410
N834        N  0.62294308  0.58355442  0.06621945    -0.58190
N835        N  0.55552489  0.55484404  0.08851486    -0.06720
N836        N  0.56529645  0.58565255  0.12129666    -0.61030
N837        N  0.58991545  0.94991733  0.05507538    -0.05700
N838        N  0.62198214  0.91767126  0.06365490    -0.58210
Mn839      Mn  0.49962005  0.50238491  0.08966642     1.20190
Mn840      Mn  0.59058674  0.00217721  0.99980716     1.10090
Cl841      Cl  0.49922390  0.50148596  0.99967458    -0.86190
C842        C  0.60599555  0.89855811  0.10404897     0.96150
C843        C  0.60718810  0.60347071  0.10657907     0.95950
C844        C  0.72098107  0.72461420  0.27658935    -0.02710
C845        C  0.72077752  0.77721588  0.28019523    -0.02710
C846        C  0.72021648  0.78021272  0.22485915    -0.02710
C847        C  0.72117836  0.72729080  0.22133342    -0.02710
C848        C  0.77696271  0.72466343  0.27713556    -0.02710
C849        C  0.77742568  0.72753515  0.22165049    -0.02710
C850        C  0.77617048  0.78029098  0.22445961    -0.02710
C851        C  0.77693726  0.77759124  0.27952271    -0.02710
C852        C  0.65492231  0.66458238  0.28811177    -0.21530
C853        C  0.68859447  0.69460406  0.30798453    -0.09570
C854        C  0.69059149  0.69665097  0.35808697     0.29290
C855        C  0.66305171  0.66759157  0.38611170    -0.21530
C856        C  0.63075914  0.63734014  0.36518409    -0.09580
C857        C  0.62618386  0.63703590  0.31582223     0.29300
F858        F  0.59505734  0.60874469  0.29368563    -0.20100
H859        H  0.64935028  0.66097908  0.25109778     0.17660
H860        H  0.66643165  0.66930459  0.42432827     0.17670
F861        F  0.71775906  0.72755281  0.38067852    -0.20090
C862        C  0.63824617  0.87704260  0.18167966    -0.21530
C863        C  0.63442194  0.86730839  0.13338093    -0.09570
C864        C  0.65999052  0.83026611  0.11431809     0.29290
C865        C  0.68717626  0.80217887  0.14423929    -0.21530
C866        C  0.68928046  0.81066171  0.19351499    -0.09580
C867        C  0.66670233  0.85042398  0.21101623     0.29300
F868        F  0.67644212  0.86761673  0.25431454    -0.20100
H869        H  0.62136603  0.90726288  0.19639507     0.17660
H870        H  0.70677980  0.77382481  0.12896285     0.17670
F871        F  0.65815940  0.82093933  0.06719812    -0.20090
C872        C  0.88270949  0.65490427  0.17492308    -0.21530
C873        C  0.86647741  0.64271390  0.12964538    -0.09570
C874        C  0.82502021  0.66425140  0.11179675     0.29290
C875        C  0.79895829  0.69492032  0.14032512    -0.21530
C876        C  0.81175537  0.70226910  0.18801439    -0.09580
C877        C  0.85616102  0.68443082  0.20360623     0.29300
F878        F  0.87495321  0.69550990  0.24635884    -0.20100
H879        H  0.91560602  0.64054168  0.18899598     0.17660
H880        H  0.76697023  0.71066397  0.12597027     0.17670
F881        F  0.80888901  0.65488244  0.06744420    -0.20090
C882        C  0.61685436  0.67754078  0.14786460    -0.21530
C883        C  0.63587500  0.63533327  0.13469417    -0.09570
C884        C  0.68172495  0.62278602  0.15039665     0.29290
C885        C  0.70852203  0.65271205  0.17809326    -0.21530
C886        C  0.69160811  0.69687970  0.18848047    -0.09580
C887        C  0.64400209  0.70792374  0.17482755     0.29300
F888        F  0.62155321  0.74583545  0.19078102    -0.20100
H889        H  0.58056488  0.68673723  0.13782935     0.17660
H890        H  0.74220712  0.64068232  0.19233929     0.17670
F891        F  0.69958366  0.58066679  0.14101229    -0.20090
C892        C  0.82744469  0.88493887  0.33669423    -0.21530
C893        C  0.86794578  0.86790652  0.36005900    -0.09570
C894        C  0.88354265  0.82345063  0.35065958     0.29290
C895        C  0.85583266  0.79504165  0.32195215    -0.21530
C896        C  0.81137400  0.81003745  0.30410484    -0.09580
C897        C  0.80039284  0.85667659  0.30742684     0.29300
F898        F  0.76249600  0.87463795  0.28396864    -0.20100
H899        H  0.81690521  0.92020830  0.34100576     0.17660
H900        H  0.86870692  0.76103607  0.31476018     0.17670
F901        F  0.92465584  0.80721638  0.37028073    -0.20090
C902        C  0.80847435  0.64531968  0.29342924    -0.21530
C903        C  0.80127325  0.69012951  0.30958062    -0.09570
C904        C  0.81553852  0.70087239  0.35639358     0.29290
C905        C  0.84214127  0.66986264  0.38302597    -0.21530
C906        C  0.85487258  0.62770171  0.36381462    -0.09580
C907        C  0.83683381  0.61491356  0.31934210     0.29300
F908        F  0.84641661  0.57304041  0.30118899    -0.20100
H909        H  0.79456439  0.63465750  0.25941056     0.17660
H910        H  0.85389903  0.67926068  0.41833874     0.17670
F911        F  0.80412897  0.74109007  0.37707137    -0.20090
C912        C  0.70839759  0.82174300  0.35674288    -0.21530
C913        C  0.68864490  0.80076848  0.31653705    -0.09570
C914        C  0.63857716  0.80291431  0.31047761     0.29290
C915        C  0.61096636  0.83288093  0.33815710    -0.21530
C916        C  0.63253661  0.85881171  0.37412864    -0.09580
C917        C  0.68110306  0.85103363  0.38483573     0.29300
F918        F  0.70314369  0.87332340  0.42091901    -0.20100
H919        H  0.74514628  0.81591746  0.36680158     0.17660
H920        H  0.57311755  0.83683009  0.33050041     0.17670
F921        F  0.61697949  0.77913336  0.27541251    -0.20090
C922        C  0.78880542  0.85025296  0.17145330    -0.21530
C923        C  0.80829391  0.81257373  0.19553070    -0.09670
C924        C  0.85865953  0.80703454  0.19358415     0.29290
C925        C  0.88687249  0.83496869  0.16487067    -0.21530
C926        C  0.86562002  0.86933236  0.13767018    -0.09580
C927        C  0.81637337  0.87721158  0.14200318     0.29300
F928        F  0.79505063  0.91290971  0.11992083    -0.20100
H929        H  0.75285802  0.86165059  0.17638157     0.17660
H930        H  0.92533182  0.82971834  0.16388873     0.17670
F931        F  0.88135194  0.77614821  0.22078784    -0.20090
N932        N  0.94493674  0.94763347  0.91088265    -0.06340
N933        N  0.93674829  0.91725655  0.87741718    -0.58460
N934        N  0.90736550  0.55078164  0.94348195    -0.06020
N935        N  0.87225037  0.57941676  0.93339943    -0.60590
N936        N  0.94003018  0.55069677  0.90984869    -0.05620
N937        N  0.92726826  0.57880570  0.87570631    -0.58440
N938        N  0.91078780  0.94733543  0.94302760    -0.05300
N939        N  0.87813939  0.91698715  0.93146836    -0.60940
C940        C  0.89544660  0.89801794  0.89103699     0.95840
C941        C  0.88527628  0.59670425  0.89126251     0.95610
N942        N  0.94192880  0.55389595  0.58790095    -0.06530
N943        N  0.93345197  0.58673719  0.61882251    -0.59040
N944        N  0.91076126  0.94866818  0.55643650    -0.04640
N945        N  0.87819514  0.91818235  0.56700558    -0.60290
N946        N  0.94442840  0.94943586  0.58912388    -0.06550
N947        N  0.93573026  0.91910286  0.62224748    -0.59300
N948        N  0.90817872  0.55309024  0.55529114    -0.04290
N949        N  0.87609134  0.58555264  0.56342298    -0.60380
Mn950      Mn  0.90797517  0.49982922  0.99970737     1.18440
C951        C  0.89247295  0.60650520  0.60308191     0.97920
C952        C  0.89447060  0.89961622  0.60781320     0.98580
N953        N  0.55441101  0.55351883  0.91122960    -0.06570
N954        N  0.56284509  0.58440243  0.87878807    -0.62880
N955        N  0.58996324  0.94998404  0.94441153    -0.05380
N956        N  0.62156000  0.91709587  0.93771549    -0.63560
N957        N  0.55679138  0.94895612  0.91136466    -0.06080
N958        N  0.56508272  0.91508921  0.88145393    -0.63150
N959        N  0.58788536  0.55442340  0.94414071    -0.04980
N960        N  0.61958309  0.58621763  0.93480045    -0.63840
Mn961      Mn  0.99924324  0.00042067  0.90960471     1.10660
C962        C  0.60335731  0.60482111  0.89399063     0.99140
C963        C  0.60557372  0.89539290  0.89852161     0.99220
N964        N  0.55675310  0.95066017  0.58813448    -0.06090
N965        N  0.56564581  0.91925539  0.62000972    -0.61460
N966        N  0.58928126  0.55390055  0.55602121    -0.05410
N967        N  0.62294000  0.58355643  0.56621932    -0.58190
N968        N  0.55552155  0.55484663  0.58851468    -0.06720
N969        N  0.56529322  0.58565533  0.62129630    -0.61030
N970        N  0.58991212  0.94991923  0.55507682    -0.05700
N971        N  0.62197940  0.91767396  0.56365783    -0.58210
Mn972      Mn  0.49961657  0.50238760  0.58966652     1.20190
Mn973      Mn  0.59058331  0.00217885  0.49980727     1.10090
Cl974      Cl  0.49922053  0.50148760  0.49967472    -0.86190
C975        C  0.60599347  0.89856225  0.60405303     0.96150
C976        C  0.60718507  0.60347317  0.60657877     0.95950
C977        C  0.72098252  0.72461316  0.77658965    -0.02710
C978        C  0.72077805  0.77721473  0.78019717    -0.02710
C979        C  0.72021505  0.78021338  0.72486123    -0.02710
C980        C  0.72117776  0.72729151  0.72133379    -0.02710
C981        C  0.77696414  0.72466319  0.77713436    -0.02710
C982        C  0.77742508  0.72753664  0.72164935    -0.02710
C983        C  0.77616907  0.78029239  0.72446020    -0.02710
C984        C  0.77693770  0.77759097  0.77952317    -0.02710
C985        C  0.65492440  0.66458119  0.78811235    -0.21530
C986        C  0.68859745  0.69460196  0.80798490    -0.09570
C987        C  0.69059645  0.69664736  0.85808731     0.29290
C988        C  0.66305696  0.66758783  0.88611202    -0.21530
C989        C  0.63076306  0.63733768  0.86518449    -0.09580
C990        C  0.62618644  0.63703446  0.81582277     0.29300
F991        F  0.59505889  0.60874419  0.79368630    -0.20100
H992        H  0.64935103  0.66097902  0.75109792     0.17660
H993        H  0.66643814  0.66929981  0.92432858     0.17670
F994        F  0.71776559  0.72754794  0.88067887    -0.20090
C995        C  0.63824283  0.87704413  0.68168446    -0.21530
C996        C  0.63441944  0.86731172  0.63338515    -0.09570
C997        C  0.65998815  0.83026979  0.61432169     0.29290
C998        C  0.68717384  0.80218176  0.64424223    -0.21530
C999        C  0.68927804  0.81066312  0.69351820    -0.09580
C1000       C  0.66669886  0.85042450  0.71102064     0.29300
F1001       F  0.67643761  0.86761553  0.75431996    -0.20100
H1002       H  0.62136215  0.90726377  0.69640070     0.17660
H1003       H  0.70677757  0.77382823  0.62896496     0.17670
F1004       F  0.65815722  0.82094407  0.56720150    -0.20090
C1005       C  0.88270894  0.65490894  0.67491880    -0.21530
C1006       C  0.86647565  0.64271806  0.62964178    -0.09570
C1007       C  0.82501753  0.66425466  0.61179406     0.29290
C1008       C  0.79895584  0.69492316  0.64032307    -0.21530
C1009       C  0.81175419  0.70227196  0.68801200    -0.09580
C1010       C  0.85616059  0.68443458  0.70360266     0.29300
F1011       F  0.87495353  0.69551328  0.74635502    -0.20100
H1012       H  0.91560612  0.64054701  0.68899093     0.17660
H1013       H  0.76696702  0.71066621  0.62596915     0.17670
F1014       F  0.80888509  0.65488498  0.56744210    -0.20090
C1015       C  0.61685197  0.67754256  0.64786610    -0.21530
C1016       C  0.63587248  0.63533540  0.63469408    -0.09570
C1017       C  0.68172292  0.62278810  0.65039521     0.29290
C1018       C  0.70852055  0.65271362  0.67809201    -0.21530
C1019       C  0.69160673  0.69688099  0.68848072    -0.09580
C1020       C  0.64400029  0.70792511  0.67482910     0.29300
F1021       F  0.62155163  0.74583645  0.69078383    -0.20100
H1022       H  0.58056220  0.68673909  0.63783196     0.17660
H1023       H  0.74220608  0.64068375  0.69233701     0.17670
F1024       F  0.69958166  0.58066919  0.64100934    -0.20090
C1025       C  0.82744499  0.88493745  0.83669736    -0.21530
C1026       C  0.86794872  0.86790545  0.86005800    -0.09570
C1027       C  0.88354675  0.82345059  0.85065480     0.29290
C1028       C  0.85583532  0.79504188  0.82194841    -0.21530
C1029       C  0.81137474  0.81003709  0.80410509    -0.09580
C1030       C  0.80039211  0.85667573  0.80743031     0.29300
F1031       F  0.76249280  0.87463700  0.78397580    -0.20100
H1032       H  0.81690427  0.92020625  0.84101177     0.17660
H1033       H  0.86870994  0.76103680  0.81475431     0.17670
F1034       F  0.92466234  0.80721689  0.87027156    -0.20090
C1035       C  0.80847837  0.64531929  0.79342640    -0.21530
C1036       C  0.80127678  0.69012898  0.80957833    -0.09570
C1037       C  0.81554359  0.70087156  0.85639098     0.29290
C1038       C  0.84214627  0.66986137  0.88302306    -0.21530
C1039       C  0.85487677  0.62770017  0.86381183    -0.09580
C1040       C  0.83683812  0.61491280  0.81933891     0.29300
F1041       F  0.84642096  0.57303990  0.80118516    -0.20100
H1042       H  0.79456810  0.63465739  0.75940771     0.17660
H1043       H  0.85390435  0.67925920  0.91833578     0.17670
F1044       F  0.80413482  0.74108919  0.87706927    -0.20090
C1045       C  0.70839905  0.82173874  0.85674665    -0.21530
C1046       C  0.68864595  0.80076517  0.81654053    -0.09570
C1047       C  0.63857811  0.80290988  0.81048222     0.29290
C1048       C  0.61096746  0.83287595  0.83816228    -0.21530
C1049       C  0.63253821  0.85880703  0.87413321    -0.09580
C1050       C  0.68110468  0.85102881  0.88484018     0.29300
F1051       F  0.70314556  0.87331834  0.92092349    -0.20100
H1052       H  0.74514804  0.81591340  0.86680453     0.17660
H1053       H  0.57311853  0.83682494  0.83050607     0.17670
F1054       F  0.61698020  0.77912880  0.77541737    -0.20090
C1055       C  0.78880193  0.85025689  0.67145689    -0.21530
C1056       C  0.80829123  0.81257644  0.69553169    -0.09670
C1057       C  0.85865672  0.80703720  0.69358315     0.29290
C1058       C  0.88686864  0.83497202  0.66486974    -0.21530
C1059       C  0.86561539  0.86933677  0.63767158    -0.09580
C1060       C  0.81636902  0.87721654  0.64200691     0.29300
F1061       F  0.79504599  0.91291595  0.61992702    -0.20100
H1062       H  0.75285472  0.86165444  0.67638727     0.17660
H1063       H  0.92532788  0.82972137  0.66388607     0.17670
F1064       F  0.88135027  0.77615027  0.72078500    -0.20090
loop_ 
_geom_bond_atom_site_label_1 
_geom_bond_atom_site_label_2 
_geom_bond_distance 
_geom_bond_site_symmetry_2 
_ccdc_geom_bond_type 
N1            N2   1.318       .  A
N1            N7   1.317       .  A
N1          Mn30   2.183       .  S
N2            C9   1.347       .  A
N3            N5   1.317       .  A
N3            N4   1.319       .  A
N3          Mn19   2.192   1_545  S
N4           C10   1.349       .  A
N5            N6   1.321       .  A
N5         Mn296   2.209       .  S
N6           C10   1.353       .  A
N7            N8   1.322       .  A
N7         Mn285   2.219       .  S
N8            C9   1.355       .  A
C9           C95   1.463       .  S
C10         C108   1.465       .  S
N11          N17   1.316       .  A
N11          N12   1.319       .  A
N11        Mn573   2.203       .  S
N12          C20   1.354       .  A
N13          N14   1.320       .  A
N13          N15   1.316       .  A
N13        Mn418   2.208   1_554  S
N14          C21   1.354       .  A
N15          N16   1.322       .  A
N15        Mn839   2.203       .  S
N16          C21   1.352       .  A
N17          N18   1.323       .  A
N17        Mn152   2.211   1_544  S
N18          C20   1.355       .  A
Mn19        N273   2.219       .  S
Mn19        N412   2.208       .  S
Mn19        N150   2.211   1_565  S
Mn19       Cl708   2.547   1_565  S
C20          C75   1.484       .  S
C21         C128   1.477       .  S
N22          N23   1.319       .  A
N22          N28   1.316       .  A
N22        Mn828   2.206   1_455  S
N23          C31   1.353       .  A
N24          N26   1.313       .  A
N24          N25   1.317       .  A
N24        Mn175   2.186       .  S
N25          C32   1.351       .  A
N26          N27   1.322       .  A
N26        Mn562   2.199   1_455  S
N27          C32   1.354       .  A
N28          N29   1.323       .  A
N28        Mn441   2.208       .  S
N29          C31   1.354       .  A
Mn30        N271   2.209       .  S
Mn30        N820   2.206       .  S
Mn30        N558   2.199       .  S
Mn30       Cl974   2.542       .  S
C31          C58   1.480       .  S
C32         C118   1.476       .  S
N33          N34   1.317       .  A
N33          N39   1.315       .  A
N33        Mn307   2.195   1_455  S
N34          C44   1.352       .  A
N35          N36   1.319       .  A
N35          N37   1.316       .  A
N35        Mn308   2.193   1_554  S
N36          C45   1.350       .  A
N37          N38   1.322       .  A
N37         Mn41   2.207   1_455  S
N38          C45   1.353       .  A
N39          N40   1.322       .  A
N39         Mn42   2.200   1_554  S
N40          C44   1.353       .  A
Mn41        N543   2.203       .  S
Mn41        N813   2.203   1_545  S
Mn41        N299   2.195   1_645  S
Mn41        Cl43   2.540   1_554  S
Mn42        N157   2.186       .  S
Mn42        N427   2.208       .  S
Mn42        N301   2.193   1_556  S
Mn42       Cl309   2.549   1_455  S
Cl43       Mn684   2.547   1_545  S
Cl43       Mn961   2.542       .  S
Cl43       Mn308   2.549   1_655  S
C44          C65   1.469       .  S
C45          C85   1.468       .  S
C46          C47   1.553       .  S
C46          C49   1.562       .  S
C46          C50   1.562       .  S
C46          C55   1.553       .  S
C47          C48   1.565       .  S
C47          C53   1.567       .  S
C47         C115   1.523       .  S
C48          C49   1.562       .  S
C48          C52   1.561       .  S
C48          C68   1.525       .  S
C49          C51   1.569       .  S
C49          C88   1.531       .  S
C50          C51   1.569       .  S
C50          C53   1.561       .  S
C50         C105   1.527       .  S
C51          C52   1.556       .  S
C51          C78   1.534       .  S
C52          C53   1.557       .  S
C52         C125   1.551       .  S
C53          C98   1.525       .  S
C54          C55   1.410       .  A
C54          C59   1.392       .  A
C54          H61   1.061       .  S
C55          C56   1.416       .  A
C56          C57   1.405       .  A
C56          F63   1.347       .  S
C57          C58   1.401       .  A
C57          H62   1.083       .  S
C58          C59   1.399       .  A
C59          F60   1.358       .  S
C64          C65   1.395       .  A
C64          C69   1.388       .  A
C64          H71   1.084       .  S
C65          C66   1.403       .  A
C66          C67   1.403       .  A
C66          F73   1.357       .  S
C67          C68   1.412       .  A
C67          H72   1.082       .  S
C68          C69   1.412       .  A
C69          F70   1.348       .  S
C74          C75   1.401       .  A
C74          C79   1.393       .  A
C74          H81   1.083       .  S
C75          C76   1.408       .  A
C76          C77   1.405       .  A
C76          F83   1.357       .  S
C77          C78   1.408       .  A
C77          H82   1.081       .  S
C78          C79   1.412       .  A
C79          F80   1.354       .  S
C84          C85   1.396       .  A
C84          C89   1.399       .  A
C84          H91   1.083       .  S
C85          C86   1.400       .  A
C86          C87   1.396       .  A
C86          F93   1.358       .  S
C87          C88   1.409       .  A
C87          H92   1.079       .  S
C88          C89   1.418       .  A
C89          F90   1.351       .  S
C94          C95   1.398       .  A
C94          C99   1.395       .  A
C94         H101   1.084       .  S
C95          C96   1.400       .  A
C96          C97   1.399       .  A
C96         F103   1.357       .  S
C97          C98   1.406       .  A
C97         H102   1.079       .  S
C98          C99   1.408       .  A
C99         F100   1.352       .  S
C104        C105   1.407       .  A
C104        C109   1.399       .  A
C104        H111   1.081       .  S
C105        C106   1.414       .  A
C106        C107   1.395       .  A
C106        F113   1.353       .  S
C107        C108   1.395       .  A
C107        H112   1.084       .  S
C108        C109   1.402       .  A
C109        F110   1.357       .  S
C114        C115   1.403       .  A
C114        C119   1.391       .  A
C114        H121   1.076       .  S
C115        C116   1.408       .  A
C116        C117   1.401       .  A
C116        F123   1.353       .  S
C117        C118   1.405       .  A
C117        H122   1.083       .  S
C118        C119   1.405       .  A
C119        F120   1.358       .  S
C124        C125   1.410       .  A
C124        C129   1.392       .  A
C124        H131   1.064       .  S
C125        C126   1.414       .  A
C126        C127   1.406       .  A
C126        F133   1.348       .  S
C127        C128   1.402       .  A
C127        H132   1.083       .  S
C128        C129   1.397       .  A
C129        F130   1.358       .  S
N134        N135   1.318       .  A
N134        N140   1.317       .  A
N134       Mn163   2.183       .  S
N135        C142   1.347       .  A
N136        N138   1.317       .  A
N136        N137   1.319       .  A
N136       Mn152   2.192   1_545  S
N137        C143   1.349       .  A
N138        N139   1.321       .  A
N138       Mn429   2.209       .  S
N139        C143   1.353       .  A
N140        N141   1.322       .  A
N140       Mn418   2.219       .  S
N141        C142   1.355       .  A
C142        C228   1.463       .  S
C143        C241   1.465       .  S
N144        N150   1.316       .  A
N144        N145   1.319       .  A
N144       Mn706   2.203       .  S
N145        C153   1.354       .  A
N146        N147   1.320       .  A
N146        N148   1.316       .  A
N146       Mn285   2.208       .  S
N147        C154   1.354       .  A
N148        N149   1.322       .  A
N148       Mn972   2.203       .  S
N149        C154   1.352       .  A
N150        N151   1.323       .  A
N151        C153   1.355       .  A
Mn152       N406   2.219       .  S
Mn152       N279   2.208   1_556  S
Mn152      Cl575   2.547   1_565  S
C153        C208   1.484       .  S
C154        C261   1.477       .  S
N155        N156   1.319       .  A
N155        N161   1.316       .  A
N155       Mn961   2.206   1_455  S
N156        C164   1.353       .  A
N157        N159   1.313       .  A
N157        N158   1.317       .  A
N158        C165   1.351       .  A
N159        N160   1.322       .  A
N159       Mn695   2.199   1_455  S
N160        C165   1.354       .  A
N161        N162   1.323       .  A
N161       Mn308   2.208       .  S
N162        C164   1.354       .  A
Mn163       N404   2.209       .  S
Mn163       N953   2.206       .  S
Mn163       N691   2.199       .  S
Mn163      Cl841   2.542       .  S
C164        C191   1.480       .  S
C165        C251   1.476       .  S
N166        N167   1.317       .  A
N166        N172   1.315       .  A
N166       Mn440   2.195   1_455  S
N167        C177   1.352       .  A
N168        N169   1.319       .  A
N168        N170   1.316       .  A
N168       Mn441   2.193       .  S
N169        C178   1.350       .  A
N170        N171   1.322       .  A
N170       Mn174   2.207   1_455  S
N171        C178   1.353       .  A
N172        N173   1.322       .  A
N172       Mn175   2.200       .  S
N173        C177   1.353       .  A
Mn174       N676   2.203       .  S
Mn174       N946   2.203   1_545  S
Mn174       N432   2.195   1_645  S
Mn174      Cl176   2.540       .  S
Mn175       N294   2.208       .  S
Mn175       N434   2.193       .  S
Mn175      Cl442   2.549   1_455  S
Cl176      Mn551   2.547   1_545  S
Cl176      Mn828   2.542       .  S
Cl176      Mn441   2.549   1_655  S
C177        C198   1.469       .  S
C178        C218   1.468       .  S
C179        C180   1.553       .  S
C179        C182   1.562       .  S
C179        C183   1.562       .  S
C179        C188   1.553       .  S
C180        C181   1.565       .  S
C180        C186   1.567       .  S
C180        C248   1.523       .  S
C181        C182   1.562       .  S
C181        C185   1.561       .  S
C181        C201   1.525       .  S
C182        C184   1.569       .  S
C182        C221   1.531       .  S
C183        C184   1.569       .  S
C183        C186   1.561       .  S
C183        C238   1.527       .  S
C184        C185   1.556       .  S
C184        C211   1.534       .  S
C185        C186   1.557       .  S
C185        C258   1.551       .  S
C186        C231   1.525       .  S
C187        C188   1.410       .  A
C187        C192   1.392       .  A
C187        H194   1.061       .  S
C188        C189   1.416       .  A
C189        C190   1.405       .  A
C189        F196   1.347       .  S
C190        C191   1.401       .  A
C190        H195   1.083       .  S
C191        C192   1.399       .  A
C192        F193   1.358       .  S
C197        C198   1.395       .  A
C197        C202   1.388       .  A
C197        H204   1.084       .  S
C198        C199   1.403       .  A
C199        C200   1.403       .  A
C199        F206   1.357       .  S
C200        C201   1.412       .  A
C200        H205   1.082       .  S
C201        C202   1.412       .  A
C202        F203   1.348       .  S
C207        C208   1.401       .  A
C207        C212   1.393       .  A
C207        H214   1.083       .  S
C208        C209   1.408       .  A
C209        C210   1.405       .  A
C209        F216   1.357       .  S
C210        C211   1.408       .  A
C210        H215   1.081       .  S
C211        C212   1.412       .  A
C212        F213   1.354       .  S
C217        C218   1.396       .  A
C217        C222   1.399       .  A
C217        H224   1.083       .  S
C218        C219   1.400       .  A
C219        C220   1.396       .  A
C219        F226   1.358       .  S
C220        C221   1.409       .  A
C220        H225   1.079       .  S
C221        C222   1.418       .  A
C222        F223   1.351       .  S
C227        C228   1.398       .  A
C227        C232   1.395       .  A
C227        H234   1.084       .  S
C228        C229   1.400       .  A
C229        C230   1.399       .  A
C229        F236   1.357       .  S
C230        C231   1.406       .  A
C230        H235   1.079       .  S
C231        C232   1.408       .  A
C232        F233   1.352       .  S
C237        C238   1.407       .  A
C237        C242   1.399       .  A
C237        H244   1.081       .  S
C238        C239   1.414       .  A
C239        C240   1.395       .  A
C239        F246   1.353       .  S
C240        C241   1.395       .  A
C240        H245   1.084       .  S
C241        C242   1.402       .  A
C242        F243   1.357       .  S
C247        C248   1.403       .  A
C247        C252   1.391       .  A
C247        H254   1.076       .  S
C248        C249   1.408       .  A
C249        C250   1.401       .  A
C249        F256   1.353       .  S
C250        C251   1.405       .  A
C250        H255   1.083       .  S
C251        C252   1.405       .  A
C252        F253   1.358       .  S
C257        C258   1.410       .  A
C257        C262   1.392       .  A
C257        H264   1.064       .  S
C258        C259   1.414       .  A
C259        C260   1.406       .  A
C259        F266   1.348       .  S
C260        C261   1.402       .  A
C260        H265   1.083       .  S
C261        C262   1.397       .  A
C262        F263   1.358       .  S
N267        N268   1.318       .  A
N267        N273   1.317       .  A
N267       Mn296   2.183   1_565  S
N268        C275   1.347       .  A
N269        N271   1.317       .  A
N269        N270   1.319       .  A
N269       Mn285   2.192       .  S
N270        C276   1.349       .  A
N271        N272   1.321       .  A
N272        C276   1.353       .  A
N273        N274   1.322       .  A
N274        C275   1.355       .  A
C275        C361   1.463       .  S
C276        C374   1.465       .  S
N277        N283   1.316       .  A
N277        N278   1.319       .  A
N277       Mn839   2.203       .  S
N278        C286   1.354       .  A
N279        N280   1.320       .  A
N279        N281   1.316       .  A
N280        C287   1.354       .  A
N281        N282   1.322       .  A
N281       Mn573   2.203   1_565  S
N282        C287   1.352       .  A
N283        N284   1.323       .  A
N283       Mn418   2.211   1_554  S
N284        C286   1.355       .  A
Mn285       N416   2.211       .  S
Mn285      Cl974   2.547       .  S
C286        C341   1.484       .  S
C287        C394   1.477       .  S
N288        N289   1.319       .  A
N288        N294   1.316       .  A
N288       Mn562   2.206   1_455  S
N289        C297   1.353       .  A
N290        N292   1.313       .  A
N290        N291   1.317       .  A
N290       Mn441   2.186   1_565  S
N291        C298   1.351       .  A
N292        N293   1.322       .  A
N292       Mn828   2.199   1_465  S
N293        C298   1.354       .  A
N294        N295   1.323       .  A
N295        C297   1.354       .  A
Mn296       N554   2.206       .  S
Mn296       N824   2.199   1_545  S
Mn296      Cl708   2.542       .  S
C297        C324   1.480       .  S
C298        C384   1.476       .  S
N299        N300   1.317       .  A
N299        N305   1.315       .  A
N300        C310   1.352       .  A
N301        N302   1.319       .  A
N301        N303   1.316       .  A
N302        C311   1.350       .  A
N303        N304   1.322       .  A
N303       Mn307   2.207   1_455  S
N304        C311   1.353       .  A
N305        N306   1.322       .  A
N305       Mn308   2.200   1_564  S
N306        C310   1.353       .  A
Mn307       N809   2.203       .  S
Mn307       N547   2.203       .  S
Mn307      Cl309   2.540   1_554  S
Mn308       N423   2.186   1_545  S
Cl309      Mn950   2.547       .  S
Cl309      Mn695   2.542       .  S
C310        C331   1.469       .  S
C311        C351   1.468       .  S
C312        C313   1.553       .  S
C312        C315   1.562       .  S
C312        C316   1.562       .  S
C312        C321   1.553       .  S
C313        C314   1.565       .  S
C313        C319   1.567       .  S
C313        C381   1.523       .  S
C314        C315   1.562       .  S
C314        C318   1.561       .  S
C314        C334   1.525       .  S
C315        C317   1.569       .  S
C315        C354   1.531       .  S
C316        C317   1.569       .  S
C316        C319   1.561       .  S
C316        C371   1.527       .  S
C317        C318   1.556       .  S
C317        C344   1.534       .  S
C318        C319   1.557       .  S
C318        C391   1.551       .  S
C319        C364   1.525       .  S
C320        C321   1.410       .  A
C320        C325   1.392       .  A
C320        H327   1.061       .  S
C321        C322   1.416       .  A
C322        C323   1.405       .  A
C322        F329   1.347       .  S
C323        C324   1.401       .  A
C323        H328   1.083       .  S
C324        C325   1.399       .  A
C325        F326   1.358       .  S
C330        C331   1.395       .  A
C330        C335   1.388       .  A
C330        H337   1.084       .  S
C331        C332   1.403       .  A
C332        C333   1.403       .  A
C332        F339   1.357       .  S
C333        C334   1.412       .  A
C333        H338   1.082       .  S
C334        C335   1.412       .  A
C335        F336   1.348       .  S
C340        C341   1.401       .  A
C340        C345   1.393       .  A
C340        H347   1.083       .  S
C341        C342   1.408       .  A
C342        C343   1.405       .  A
C342        F349   1.357       .  S
C343        C344   1.408       .  A
C343        H348   1.081       .  S
C344        C345   1.412       .  A
C345        F346   1.354       .  S
C350        C351   1.396       .  A
C350        C355   1.399       .  A
C350        H357   1.083       .  S
C351        C352   1.400       .  A
C352        C353   1.396       .  A
C352        F359   1.358       .  S
C353        C354   1.409       .  A
C353        H358   1.079       .  S
C354        C355   1.418       .  A
C355        F356   1.351       .  S
C360        C361   1.398       .  A
C360        C365   1.395       .  A
C360        H367   1.084       .  S
C361        C362   1.400       .  A
C362        C363   1.399       .  A
C362        F369   1.357       .  S
C363        C364   1.406       .  A
C363        H368   1.079       .  S
C364        C365   1.408       .  A
C365        F366   1.352       .  S
C370        C371   1.407       .  A
C370        C375   1.399       .  A
C370        H377   1.081       .  S
C371        C372   1.414       .  A
C372        C373   1.395       .  A
C372        F379   1.353       .  S
C373        C374   1.395       .  A
C373        H378   1.084       .  S
C374        C375   1.402       .  A
C375        F376   1.357       .  S
C380        C381   1.403       .  A
C380        C385   1.391       .  A
C380        H387   1.076       .  S
C381        C382   1.408       .  A
C382        C383   1.401       .  A
C382        F389   1.353       .  S
C383        C384   1.405       .  A
C383        H388   1.083       .  S
C384        C385   1.405       .  A
C385        F386   1.358       .  S
C390        C391   1.410       .  A
C390        C395   1.392       .  A
C390        H397   1.064       .  S
C391        C392   1.414       .  A
C392        C393   1.406       .  A
C392        F399   1.348       .  S
C393        C394   1.402       .  A
C393        H398   1.083       .  S
C394        C395   1.397       .  A
C395        F396   1.358       .  S
N400        N401   1.318       .  A
N400        N406   1.317       .  A
N400       Mn429   2.183   1_565  S
N401        C408   1.347       .  A
N402        N404   1.317       .  A
N402        N403   1.319       .  A
N402       Mn418   2.192       .  S
N403        C409   1.349       .  A
N404        N405   1.321       .  A
N405        C409   1.353       .  A
N406        N407   1.322       .  A
N407        C408   1.355       .  A
C408        C494   1.463       .  S
C409        C507   1.465       .  S
N410        N416   1.316       .  A
N410        N411   1.319       .  A
N410       Mn972   2.203       .  S
N411        C419   1.354       .  A
N412        N413   1.320       .  A
N412        N414   1.316       .  A
N413        C420   1.354       .  A
N414        N415   1.322       .  A
N414       Mn706   2.203   1_565  S
N415        C420   1.352       .  A
N416        N417   1.323       .  A
N417        C419   1.355       .  A
Mn418      Cl841   2.547       .  S
C419        C474   1.484       .  S
C420        C527   1.477       .  S
N421        N422   1.319       .  A
N421        N427   1.316       .  A
N421       Mn695   2.206   1_455  S
N422        C430   1.353       .  A
N423        N425   1.313       .  A
N423        N424   1.317       .  A
N424        C431   1.351       .  A
N425        N426   1.322       .  A
N425       Mn961   2.199   1_465  S
N426        C431   1.354       .  A
N427        N428   1.323       .  A
N428        C430   1.354       .  A
Mn429       N687   2.206       .  S
Mn429       N957   2.199   1_545  S
Mn429      Cl575   2.542       .  S
C430        C457   1.480       .  S
C431        C517   1.476       .  S
N432        N433   1.317       .  A
N432        N438   1.315       .  A
N433        C443   1.352       .  A
N434        N435   1.319       .  A
N434        N436   1.316       .  A
N435        C444   1.350       .  A
N436        N437   1.322       .  A
N436       Mn440   2.207   1_455  S
N437        C444   1.353       .  A
N438        N439   1.322       .  A
N438       Mn441   2.200   1_565  S
N439        C443   1.353       .  A
Mn440       N942   2.203       .  S
Mn440       N680   2.203       .  S
Mn440      Cl442   2.540       .  S
Cl442      Mn817   2.547       .  S
Cl442      Mn562   2.542       .  S
C443        C464   1.469       .  S
C444        C484   1.468       .  S
C445        C446   1.553       .  S
C445        C448   1.562       .  S
C445        C449   1.562       .  S
C445        C454   1.553       .  S
C446        C447   1.565       .  S
C446        C452   1.567       .  S
C446        C514   1.523       .  S
C447        C448   1.562       .  S
C447        C451   1.561       .  S
C447        C467   1.525       .  S
C448        C450   1.569       .  S
C448        C487   1.531       .  S
C449        C450   1.569       .  S
C449        C452   1.561       .  S
C449        C504   1.527       .  S
C450        C451   1.556       .  S
C450        C477   1.534       .  S
C451        C452   1.557       .  S
C451        C524   1.551       .  S
C452        C497   1.525       .  S
C453        C454   1.410       .  A
C453        C458   1.392       .  A
C453        H460   1.061       .  S
C454        C455   1.416       .  A
C455        C456   1.405       .  A
C455        F462   1.347       .  S
C456        C457   1.401       .  A
C456        H461   1.083       .  S
C457        C458   1.399       .  A
C458        F459   1.358       .  S
C463        C464   1.395       .  A
C463        C468   1.388       .  A
C463        H470   1.084       .  S
C464        C465   1.403       .  A
C465        C466   1.403       .  A
C465        F472   1.357       .  S
C466        C467   1.412       .  A
C466        H471   1.082       .  S
C467        C468   1.412       .  A
C468        F469   1.348       .  S
C473        C474   1.401       .  A
C473        C478   1.393       .  A
C473        H480   1.083       .  S
C474        C475   1.408       .  A
C475        C476   1.405       .  A
C475        F482   1.357       .  S
C476        C477   1.408       .  A
C476        H481   1.081       .  S
C477        C478   1.412       .  A
C478        F479   1.354       .  S
C483        C484   1.396       .  A
C483        C488   1.399       .  A
C483        H490   1.083       .  S
C484        C485   1.400       .  A
C485        C486   1.396       .  A
C485        F492   1.358       .  S
C486        C487   1.409       .  A
C486        H491   1.079       .  S
C487        C488   1.418       .  A
C488        F489   1.351       .  S
C493        C494   1.398       .  A
C493        C498   1.395       .  A
C493        H500   1.084       .  S
C494        C495   1.400       .  A
C495        C496   1.399       .  A
C495        F502   1.357       .  S
C496        C497   1.406       .  A
C496        H501   1.079       .  S
C497        C498   1.408       .  A
C498        F499   1.352       .  S
C503        C504   1.407       .  A
C503        C508   1.399       .  A
C503        H510   1.081       .  S
C504        C505   1.414       .  A
C505        C506   1.395       .  A
C505        F512   1.353       .  S
C506        C507   1.395       .  A
C506        H511   1.084       .  S
C507        C508   1.402       .  A
C508        F509   1.357       .  S
C513        C514   1.403       .  A
C513        C518   1.391       .  A
C513        H520   1.076       .  S
C514        C515   1.408       .  A
C515        C516   1.401       .  A
C515        F522   1.353       .  S
C516        C517   1.405       .  A
C516        H521   1.083       .  S
C517        C518   1.405       .  A
C518        F519   1.358       .  S
C523        C524   1.410       .  A
C523        C528   1.392       .  A
C523        H530   1.064       .  S
C524        C525   1.414       .  A
C525        C526   1.406       .  A
C525        F532   1.348       .  S
C526        C527   1.402       .  A
C526        H531   1.083       .  S
C527        C528   1.397       .  A
C528        F529   1.358       .  S
N533        N534   1.318       .  A
N533        N539   1.317       .  A
N533       Mn562   2.183       .  S
N534        C541   1.347       .  A
N535        N537   1.317       .  A
N535        N536   1.319       .  A
N535       Mn551   2.192   1_545  S
N536        C542   1.349       .  A
N537        N538   1.321       .  A
N537       Mn828   2.209       .  S
N538        C542   1.353       .  A
N539        N540   1.322       .  A
N539       Mn817   2.219       .  S
N540        C541   1.355       .  A
C541        C627   1.463       .  S
C542        C640   1.465       .  S
N543        N549   1.316       .  A
N543        N544   1.319       .  A
N544        C552   1.354       .  A
N545        N546   1.320       .  A
N545        N547   1.316       .  A
N545       Mn950   2.208   1_554  S
N546        C553   1.354       .  A
N547        N548   1.322       .  A
N548        C553   1.352       .  A
N549        N550   1.323       .  A
N549       Mn684   2.211   1_544  S
N550        C552   1.355       .  A
Mn551       N805   2.219       .  S
Mn551       N944   2.208       .  S
Mn551       N682   2.211   1_565  S
C552        C607   1.484       .  S
C553        C660   1.477       .  S
N554        N555   1.319       .  A
N554        N560   1.316       .  A
N555        C563   1.353       .  A
N556        N558   1.313       .  A
N556        N557   1.317       .  A
N556       Mn707   2.186       .  S
N557        C564   1.351       .  A
N558        N559   1.322       .  A
N559        C564   1.354       .  A
N560        N561   1.323       .  A
N560       Mn973   2.208       .  S
N561        C563   1.354       .  A
Mn562       N803   2.209       .  S
C563        C590   1.480       .  S
C564        C650   1.476       .  S
N565        N566   1.317       .  A
N565        N571   1.315       .  A
N565       Mn839   2.195       .  S
N566        C576   1.352       .  A
N567        N568   1.319       .  A
N567        N569   1.316       .  A
N567       Mn840   2.193   1_554  S
N568        C577   1.350       .  A
N569        N570   1.322       .  A
N569       Mn573   2.207       .  S
N570        C577   1.353       .  A
N571        N572   1.322       .  A
N571       Mn574   2.200   1_554  S
N572        C576   1.353       .  A
Mn573       N831   2.195   1_545  S
Mn573      Cl575   2.540   1_554  S
Mn574       N689   2.186       .  S
Mn574       N959   2.208       .  S
Mn574       N833   2.193   1_556  S
Mn574      Cl841   2.549       .  S
Cl575      Mn840   2.549       .  S
C576        C597   1.469       .  S
C577        C617   1.468       .  S
C578        C579   1.553       .  S
C578        C581   1.562       .  S
C578        C582   1.562       .  S
C578        C587   1.553       .  S
C579        C580   1.565       .  S
C579        C585   1.567       .  S
C579        C647   1.523       .  S
C580        C581   1.562       .  S
C580        C584   1.561       .  S
C580        C600   1.525       .  S
C581        C583   1.569       .  S
C581        C620   1.531       .  S
C582        C583   1.569       .  S
C582        C585   1.561       .  S
C582        C637   1.527       .  S
C583        C584   1.556       .  S
C583        C610   1.534       .  S
C584        C585   1.557       .  S
C584        C657   1.551       .  S
C585        C630   1.525       .  S
C586        C587   1.410       .  A
C586        C591   1.392       .  A
C586        H593   1.061       .  S
C587        C588   1.416       .  A
C588        C589   1.405       .  A
C588        F595   1.347       .  S
C589        C590   1.401       .  A
C589        H594   1.083       .  S
C590        C591   1.399       .  A
C591        F592   1.358       .  S
C596        C597   1.395       .  A
C596        C601   1.388       .  A
C596        H603   1.084       .  S
C597        C598   1.403       .  A
C598        C599   1.403       .  A
C598        F605   1.357       .  S
C599        C600   1.412       .  A
C599        H604   1.082       .  S
C600        C601   1.412       .  A
C601        F602   1.348       .  S
C606        C607   1.401       .  A
C606        C611   1.393       .  A
C606        H613   1.083       .  S
C607        C608   1.408       .  A
C608        C609   1.405       .  A
C608        F615   1.357       .  S
C609        C610   1.408       .  A
C609        H614   1.081       .  S
C610        C611   1.412       .  A
C611        F612   1.354       .  S
C616        C617   1.396       .  A
C616        C621   1.399       .  A
C616        H623   1.083       .  S
C617        C618   1.400       .  A
C618        C619   1.396       .  A
C618        F625   1.358       .  S
C619        C620   1.409       .  A
C619        H624   1.079       .  S
C620        C621   1.418       .  A
C621        F622   1.351       .  S
C626        C627   1.398       .  A
C626        C631   1.395       .  A
C626        H633   1.084       .  S
C627        C628   1.400       .  A
C628        C629   1.399       .  A
C628        F635   1.357       .  S
C629        C630   1.406       .  A
C629        H634   1.079       .  S
C630        C631   1.408       .  A
C631        F632   1.352       .  S
C636        C637   1.407       .  A
C636        C641   1.399       .  A
C636        H643   1.081       .  S
C637        C638   1.414       .  A
C638        C639   1.395       .  A
C638        F645   1.353       .  S
C639        C640   1.395       .  A
C639        H644   1.084       .  S
C640        C641   1.402       .  A
C641        F642   1.357       .  S
C646        C647   1.403       .  A
C646        C651   1.391       .  A
C646        H653   1.076       .  S
C647        C648   1.408       .  A
C648        C649   1.401       .  A
C648        F655   1.353       .  S
C649        C650   1.405       .  A
C649        H654   1.083       .  S
C650        C651   1.405       .  A
C651        F652   1.358       .  S
C656        C657   1.410       .  A
C656        C661   1.392       .  A
C656        H663   1.064       .  S
C657        C658   1.414       .  A
C658        C659   1.406       .  A
C658        F665   1.348       .  S
C659        C660   1.402       .  A
C659        H664   1.083       .  S
C660        C661   1.397       .  A
C661        F662   1.358       .  S
N666        N667   1.318       .  A
N666        N672   1.317       .  A
N666       Mn695   2.183       .  S
N667        C674   1.347       .  A
N668        N670   1.317       .  A
N668        N669   1.319       .  A
N668       Mn684   2.192   1_545  S
N669        C675   1.349       .  A
N670        N671   1.321       .  A
N670       Mn961   2.209       .  S
N671        C675   1.353       .  A
N672        N673   1.322       .  A
N672       Mn950   2.219       .  S
N673        C674   1.355       .  A
C674        C760   1.463       .  S
C675        C773   1.465       .  S
N676        N682   1.316       .  A
N676        N677   1.319       .  A
N677        C685   1.354       .  A
N678        N679   1.320       .  A
N678        N680   1.316       .  A
N678       Mn817   2.208       .  S
N679        C686   1.354       .  A
N680        N681   1.322       .  A
N681        C686   1.352       .  A
N682        N683   1.323       .  A
N683        C685   1.355       .  A
Mn684       N938   2.219       .  S
Mn684       N811   2.208   1_556  S
C685        C740   1.484       .  S
C686        C793   1.477       .  S
N687        N688   1.319       .  A
N687        N693   1.316       .  A
N688        C696   1.353       .  A
N689        N691   1.313       .  A
N689        N690   1.317       .  A
N690        C697   1.351       .  A
N691        N692   1.322       .  A
N692        C697   1.354       .  A
N693        N694   1.323       .  A
N693       Mn840   2.208       .  S
N694        C696   1.354       .  A
Mn695       N936   2.209       .  S
C696        C723   1.480       .  S
C697        C783   1.476       .  S
N698        N699   1.317       .  A
N698        N704   1.315       .  A
N698       Mn972   2.195       .  S
N699        C709   1.352       .  A
N700        N701   1.319       .  A
N700        N702   1.316       .  A
N700       Mn973   2.193       .  S
N701        C710   1.350       .  A
N702        N703   1.322       .  A
N702       Mn706   2.207       .  S
N703        C710   1.353       .  A
N704        N705   1.322       .  A
N704       Mn707   2.200       .  S
N705        C709   1.353       .  A
Mn706       N964   2.195   1_545  S
Mn706      Cl708   2.540       .  S
Mn707       N826   2.208       .  S
Mn707       N966   2.193       .  S
Mn707      Cl974   2.549       .  S
Cl708      Mn973   2.549       .  S
C709        C730   1.469       .  S
C710        C750   1.468       .  S
C711        C712   1.553       .  S
C711        C714   1.562       .  S
C711        C715   1.562       .  S
C711        C720   1.553       .  S
C712        C713   1.565       .  S
C712        C718   1.567       .  S
C712        C780   1.523       .  S
C713        C714   1.562       .  S
C713        C717   1.561       .  S
C713        C733   1.525       .  S
C714        C716   1.569       .  S
C714        C753   1.531       .  S
C715        C716   1.569       .  S
C715        C718   1.561       .  S
C715        C770   1.527       .  S
C716        C717   1.556       .  S
C716        C743   1.534       .  S
C717        C718   1.557       .  S
C717        C790   1.551       .  S
C718        C763   1.525       .  S
C719        C720   1.410       .  A
C719        C724   1.392       .  A
C719        H726   1.061       .  S
C720        C721   1.416       .  A
C721        C722   1.405       .  A
C721        F728   1.347       .  S
C722        C723   1.401       .  A
C722        H727   1.083       .  S
C723        C724   1.399       .  A
C724        F725   1.358       .  S
C729        C730   1.395       .  A
C729        C734   1.388       .  A
C729        H736   1.084       .  S
C730        C731   1.403       .  A
C731        C732   1.403       .  A
C731        F738   1.357       .  S
C732        C733   1.412       .  A
C732        H737   1.082       .  S
C733        C734   1.412       .  A
C734        F735   1.348       .  S
C739        C740   1.401       .  A
C739        C744   1.393       .  A
C739        H746   1.083       .  S
C740        C741   1.408       .  A
C741        C742   1.405       .  A
C741        F748   1.357       .  S
C742        C743   1.408       .  A
C742        H747   1.081       .  S
C743        C744   1.412       .  A
C744        F745   1.354       .  S
C749        C750   1.396       .  A
C749        C754   1.399       .  A
C749        H756   1.083       .  S
C750        C751   1.400       .  A
C751        C752   1.396       .  A
C751        F758   1.358       .  S
C752        C753   1.409       .  A
C752        H757   1.079       .  S
C753        C754   1.418       .  A
C754        F755   1.351       .  S
C759        C760   1.398       .  A
C759        C764   1.395       .  A
C759        H766   1.084       .  S
C760        C761   1.400       .  A
C761        C762   1.399       .  A
C761        F768   1.357       .  S
C762        C763   1.406       .  A
C762        H767   1.079       .  S
C763        C764   1.408       .  A
C764        F765   1.352       .  S
C769        C770   1.407       .  A
C769        C774   1.399       .  A
C769        H776   1.081       .  S
C770        C771   1.414       .  A
C771        C772   1.395       .  A
C771        F778   1.353       .  S
C772        C773   1.395       .  A
C772        H777   1.084       .  S
C773        C774   1.402       .  A
C774        F775   1.357       .  S
C779        C780   1.403       .  A
C779        C784   1.391       .  A
C779        H786   1.076       .  S
C780        C781   1.408       .  A
C781        C782   1.401       .  A
C781        F788   1.353       .  S
C782        C783   1.405       .  A
C782        H787   1.083       .  S
C783        C784   1.405       .  A
C784        F785   1.358       .  S
C789        C790   1.410       .  A
C789        C794   1.392       .  A
C789        H796   1.064       .  S
C790        C791   1.414       .  A
C791        C792   1.406       .  A
C791        F798   1.348       .  S
C792        C793   1.402       .  A
C792        H797   1.083       .  S
C793        C794   1.397       .  A
C794        F795   1.358       .  S
N799        N800   1.318       .  A
N799        N805   1.317       .  A
N799       Mn828   2.183   1_565  S
N800        C807   1.347       .  A
N801        N803   1.317       .  A
N801        N802   1.319       .  A
N801       Mn817   2.192       .  S
N802        C808   1.349       .  A
N803        N804   1.321       .  A
N804        C808   1.353       .  A
N805        N806   1.322       .  A
N806        C807   1.355       .  A
C807        C893   1.463       .  S
C808        C906   1.465       .  S
N809        N815   1.316       .  A
N809        N810   1.319       .  A
N810        C818   1.354       .  A
N811        N812   1.320       .  A
N811        N813   1.316       .  A
N812        C819   1.354       .  A
N813        N814   1.322       .  A
N814        C819   1.352       .  A
N815        N816   1.323       .  A
N815       Mn950   2.211   1_554  S
N816        C818   1.355       .  A
Mn817       N948   2.211       .  S
C818        C873   1.484       .  S
C819        C926   1.477       .  S
N820        N821   1.319       .  A
N820        N826   1.316       .  A
N821        C829   1.353       .  A
N822        N824   1.313       .  A
N822        N823   1.317       .  A
N822       Mn973   2.186   1_565  S
N823        C830   1.351       .  A
N824        N825   1.322       .  A
N825        C830   1.354       .  A
N826        N827   1.323       .  A
N827        C829   1.354       .  A
C829        C856   1.480       .  S
C830        C916   1.476       .  S
N831        N832   1.317       .  A
N831        N837   1.315       .  A
N832        C842   1.352       .  A
N833        N834   1.319       .  A
N833        N835   1.316       .  A
N834        C843   1.350       .  A
N835        N836   1.322       .  A
N835       Mn839   2.207       .  S
N836        C843   1.353       .  A
N837        N838   1.322       .  A
N837       Mn840   2.200   1_564  S
N838        C842   1.353       .  A
Mn839      Cl841   2.540   1_554  S
Mn840       N955   2.186   1_545  S
C842        C863   1.469       .  S
C843        C883   1.468       .  S
C844        C845   1.553       .  S
C844        C847   1.562       .  S
C844        C848   1.562       .  S
C844        C853   1.553       .  S
C845        C846   1.565       .  S
C845        C851   1.567       .  S
C845        C913   1.523       .  S
C846        C847   1.562       .  S
C846        C850   1.561       .  S
C846        C866   1.525       .  S
C847        C849   1.569       .  S
C847        C886   1.531       .  S
C848        C849   1.569       .  S
C848        C851   1.561       .  S
C848        C903   1.527       .  S
C849        C850   1.556       .  S
C849        C876   1.534       .  S
C850        C851   1.557       .  S
C850        C923   1.551       .  S
C851        C896   1.525       .  S
C852        C853   1.410       .  A
C852        C857   1.392       .  A
C852        H859   1.061       .  S
C853        C854   1.416       .  A
C854        C855   1.405       .  A
C854        F861   1.347       .  S
C855        C856   1.401       .  A
C855        H860   1.083       .  S
C856        C857   1.399       .  A
C857        F858   1.358       .  S
C862        C863   1.395       .  A
C862        C867   1.388       .  A
C862        H869   1.084       .  S
C863        C864   1.403       .  A
C864        C865   1.403       .  A
C864        F871   1.357       .  S
C865        C866   1.412       .  A
C865        H870   1.082       .  S
C866        C867   1.412       .  A
C867        F868   1.348       .  S
C872        C873   1.401       .  A
C872        C877   1.393       .  A
C872        H879   1.083       .  S
C873        C874   1.408       .  A
C874        C875   1.405       .  A
C874        F881   1.357       .  S
C875        C876   1.408       .  A
C875        H880   1.081       .  S
C876        C877   1.412       .  A
C877        F878   1.354       .  S
C882        C883   1.396       .  A
C882        C887   1.399       .  A
C882        H889   1.083       .  S
C883        C884   1.400       .  A
C884        C885   1.396       .  A
C884        F891   1.358       .  S
C885        C886   1.409       .  A
C885        H890   1.079       .  S
C886        C887   1.418       .  A
C887        F888   1.351       .  S
C892        C893   1.398       .  A
C892        C897   1.395       .  A
C892        H899   1.084       .  S
C893        C894   1.400       .  A
C894        C895   1.399       .  A
C894        F901   1.357       .  S
C895        C896   1.406       .  A
C895        H900   1.079       .  S
C896        C897   1.408       .  A
C897        F898   1.352       .  S
C902        C903   1.407       .  A
C902        C907   1.399       .  A
C902        H909   1.081       .  S
C903        C904   1.414       .  A
C904        C905   1.395       .  A
C904        F911   1.353       .  S
C905        C906   1.395       .  A
C905        H910   1.084       .  S
C906        C907   1.402       .  A
C907        F908   1.357       .  S
C912        C913   1.403       .  A
C912        C917   1.391       .  A
C912        H919   1.076       .  S
C913        C914   1.408       .  A
C914        C915   1.401       .  A
C914        F921   1.353       .  S
C915        C916   1.405       .  A
C915        H920   1.083       .  S
C916        C917   1.405       .  A
C917        F918   1.358       .  S
C922        C923   1.410       .  A
C922        C927   1.392       .  A
C922        H929   1.064       .  S
C923        C924   1.414       .  A
C924        C925   1.406       .  A
C924        F931   1.348       .  S
C925        C926   1.402       .  A
C925        H930   1.083       .  S
C926        C927   1.397       .  A
C927        F928   1.358       .  S
N932        N933   1.318       .  A
N932        N938   1.317       .  A
N932       Mn961   2.183   1_565  S
N933        C940   1.347       .  A
N934        N936   1.317       .  A
N934        N935   1.319       .  A
N934       Mn950   2.192       .  S
N935        C941   1.349       .  A
N936        N937   1.321       .  A
N937        C941   1.353       .  A
N938        N939   1.322       .  A
N939        C940   1.355       .  A
C940       C1026   1.463       .  S
C941       C1039   1.465       .  S
N942        N948   1.316       .  A
N942        N943   1.319       .  A
N943        C951   1.354       .  A
N944        N945   1.320       .  A
N944        N946   1.316       .  A
N945        C952   1.354       .  A
N946        N947   1.322       .  A
N947        C952   1.352       .  A
N948        N949   1.323       .  A
N949        C951   1.355       .  A
C951       C1006   1.484       .  S
C952       C1059   1.477       .  S
N953        N954   1.319       .  A
N953        N959   1.316       .  A
N954        C962   1.353       .  A
N955        N957   1.313       .  A
N955        N956   1.317       .  A
N956        C963   1.351       .  A
N957        N958   1.322       .  A
N958        C963   1.354       .  A
N959        N960   1.323       .  A
N960        C962   1.354       .  A
C962        C989   1.480       .  S
C963       C1049   1.476       .  S
N964        N965   1.317       .  A
N964        N970   1.315       .  A
N965        C975   1.352       .  A
N966        N967   1.319       .  A
N966        N968   1.316       .  A
N967        C976   1.350       .  A
N968        N969   1.322       .  A
N968       Mn972   2.207       .  S
N969        C976   1.353       .  A
N970        N971   1.322       .  A
N970       Mn973   2.200   1_565  S
N971        C975   1.353       .  A
Mn972      Cl974   2.540       .  S
C975        C996   1.469       .  S
C976       C1016   1.468       .  S
C977        C978   1.553       .  S
C977        C980   1.562       .  S
C977        C981   1.562       .  S
C977        C986   1.553       .  S
C978        C979   1.565       .  S
C978        C984   1.567       .  S
C978       C1046   1.523       .  S
C979        C980   1.562       .  S
C979        C983   1.561       .  S
C979        C999   1.525       .  S
C980        C982   1.569       .  S
C980       C1019   1.531       .  S
C981        C982   1.569       .  S
C981        C984   1.561       .  S
C981       C1036   1.527       .  S
C982        C983   1.556       .  S
C982       C1009   1.534       .  S
C983        C984   1.557       .  S
C983       C1056   1.551       .  S
C984       C1029   1.525       .  S
C985        C986   1.410       .  A
C985        C990   1.392       .  A
C985        H992   1.061       .  S
C986        C987   1.416       .  A
C987        C988   1.405       .  A
C987        F994   1.347       .  S
C988        C989   1.401       .  A
C988        H993   1.083       .  S
C989        C990   1.399       .  A
C990        F991   1.358       .  S
C995        C996   1.395       .  A
C995       C1000   1.388       .  A
C995       H1002   1.084       .  S
C996        C997   1.403       .  A
C997        C998   1.403       .  A
C997       F1004   1.357       .  S
C998        C999   1.412       .  A
C998       H1003   1.082       .  S
C999       C1000   1.412       .  A
C1000      F1001   1.348       .  S
C1005      C1006   1.401       .  A
C1005      C1010   1.393       .  A
C1005      H1012   1.083       .  S
C1006      C1007   1.408       .  A
C1007      C1008   1.405       .  A
C1007      F1014   1.357       .  S
C1008      C1009   1.408       .  A
C1008      H1013   1.081       .  S
C1009      C1010   1.412       .  A
C1010      F1011   1.354       .  S
C1015      C1016   1.396       .  A
C1015      C1020   1.399       .  A
C1015      H1022   1.083       .  S
C1016      C1017   1.400       .  A
C1017      C1018   1.396       .  A
C1017      F1024   1.358       .  S
C1018      C1019   1.409       .  A
C1018      H1023   1.079       .  S
C1019      C1020   1.418       .  A
C1020      F1021   1.351       .  S
C1025      C1026   1.398       .  A
C1025      C1030   1.395       .  A
C1025      H1032   1.084       .  S
C1026      C1027   1.400       .  A
C1027      C1028   1.399       .  A
C1027      F1034   1.357       .  S
C1028      C1029   1.406       .  A
C1028      H1033   1.079       .  S
C1029      C1030   1.408       .  A
C1030      F1031   1.352       .  S
C1035      C1036   1.407       .  A
C1035      C1040   1.399       .  A
C1035      H1042   1.081       .  S
C1036      C1037   1.414       .  A
C1037      C1038   1.395       .  A
C1037      F1044   1.353       .  S
C1038      C1039   1.395       .  A
C1038      H1043   1.084       .  S
C1039      C1040   1.402       .  A
C1040      F1041   1.357       .  S
C1045      C1046   1.403       .  A
C1045      C1050   1.391       .  A
C1045      H1052   1.076       .  S
C1046      C1047   1.408       .  A
C1047      C1048   1.401       .  A
C1047      F1054   1.353       .  S
C1048      C1049   1.405       .  A
C1048      H1053   1.083       .  S
C1049      C1050   1.405       .  A
C1050      F1051   1.358       .  S
C1055      C1056   1.410       .  A
C1055      C1060   1.392       .  A
C1055      H1062   1.064       .  S
C1056      C1057   1.414       .  A
C1057      C1058   1.406       .  A
C1057      F1064   1.348       .  S
C1058      C1059   1.402       .  A
C1058      H1063   1.083       .  S
C1059      C1060   1.397       .  A
C1060      F1061   1.358       .  S
