geometry optimzed in LAMMPS
_audit_creation_date              2020-11-30 
_audit_creation_method            'lammps2cif' 
_symmetry_space_group_name_H-M    'P1' 
_symmetry_Int_Tables_number       1 
_symmetry_cell_setting            triclinic 
loop_ 
_symmetry_equiv_pos_as_xyz 
  x,y,z 
_cell_length_a                    41.89463550482674 
_cell_length_b                    41.93880646178795 
_cell_length_c                    40.419169020478606 
_cell_angle_alpha                 89.86568684334226 
_cell_angle_beta                  90.01950975491387 
_cell_angle_gamma                 120.34691930707238 
loop_ 
_atom_site_label 
_atom_site_type_symbol 
_atom_site_fract_x 
_atom_site_fract_y 
_atom_site_fract_z 
_atom_site_charge 
C1          C  0.50424081  0.72046894  0.10817213     0.03650
C2          C  0.51000718  0.72413535  0.14265785    -0.12500
C3          C  0.50852345  0.75225280  0.15999883     0.01150
C4          C  0.50548188  0.77947158  0.14266177    -0.11030
C5          C  0.50345601  0.77842546  0.10810509     0.03640
C6          C  0.50138028  0.74831003  0.09106418    -0.10450
H7          H  0.51413622  0.70435351  0.15643274     0.09240
H8          H  0.50484126  0.80152734  0.15602722     0.06760
H9          H  0.49703579  0.74656300  0.06456652     0.06610
C10         C  0.50487406  0.72244837  0.35435109     0.03650
C11         C  0.50612461  0.72361762  0.31959246    -0.12500
C12         C  0.50784473  0.75352675  0.30245907     0.01150
C13         C  0.50714983  0.78193163  0.31994981    -0.11030
C14         C  0.50582204  0.78115230  0.35461915     0.03640
C15         C  0.50465593  0.75136265  0.37165496    -0.10450
H16         H  0.50541626  0.70114601  0.30579282     0.09240
H17         H  0.50758501  0.80457504  0.30656068     0.06760
H18         H  0.50381751  0.75084609  0.39846204     0.06610
C19         C  0.25516334  0.78465411  0.35423178     0.03650
C20         C  0.25224127  0.78623039  0.31978710    -0.12500
C21         C  0.22080110  0.75893277  0.30312973     0.01150
C22         C  0.19268682  0.72970105  0.32147402    -0.11030
C23         C  0.19590945  0.72772586  0.35579890     0.03640
C24         C  0.22680969  0.75561185  0.37221868    -0.10450
H25         H  0.27480403  0.80829173  0.30600590     0.09240
H26         H  0.16842108  0.70817963  0.30905047     0.06760
H27         H  0.22918431  0.75423365  0.39882836     0.06610
C28         C  0.25204678  0.78511086  0.10806330     0.03650
C29         C  0.24993793  0.78581387  0.14266409    -0.12500
C30         C  0.21904348  0.75831497  0.15964176     0.01150
C31         C  0.18933538  0.73081596  0.14150662    -0.11030
C32         C  0.19152483  0.72870402  0.10694577     0.03640
C33         C  0.22325979  0.75588415  0.09044052    -0.10450
H34         H  0.27269642  0.80754922  0.15645583     0.09240
H35         H  0.16486238  0.71030632  0.15450002     0.06760
H36         H  0.22597006  0.75402628  0.06396588     0.06610
C37         C  0.18941934  0.46843181  0.10739274     0.03650
C38         C  0.21656673  0.46489551  0.09000134    -0.12500
C39         C  0.24728805  0.46736307  0.10644115     0.01150
C40         C  0.24815517  0.46874823  0.14122229    -0.11030
C41         C  0.22009348  0.46975879  0.15935409     0.03640
C42         C  0.19188645  0.47151525  0.14207497    -0.10450
H43         H  0.21433911  0.46127062  0.06342701     0.09240
H44         H  0.27104962  0.46950525  0.15432969     0.06760
H45         H  0.17211998  0.47579854  0.15568843     0.06610
C46         C  0.19782359  0.48170426  0.35433308     0.03650
C47         C  0.22378977  0.47679070  0.37245386    -0.12500
C48         C  0.25049467  0.47153739  0.35614013     0.01150
C49         C  0.24960721  0.46928498  0.32138976    -0.11030
C50         C  0.22491264  0.47550118  0.30300491     0.03640
C51         C  0.19943713  0.48195117  0.31964434    -0.10450
H52         H  0.22360560  0.47760456  0.39917481     0.09240
H53         H  0.26885981  0.46358632  0.30851844     0.06760
H54         H  0.18084446  0.48743784  0.30533468     0.06610
C55         C  0.77185914  0.26540166  0.35364382     0.03650
C56         C  0.74193190  0.23666100  0.37089599    -0.12500
C57         C  0.71490962  0.20538047  0.35413203     0.01150
C58         C  0.71766445  0.20251311  0.31989817    -0.11030
C59         C  0.74682390  0.23124083  0.30224306     0.03640
C60         C  0.77446658  0.26192205  0.31924396    -0.10450
H61         H  0.73901545  0.23886950  0.39729778     0.09240
H62         H  0.69641765  0.17863090  0.30684039     0.06760
H63         H  0.79752608  0.28339730  0.30546699     0.06610
C64         C  0.77488558  0.26252234  0.10738578     0.03650
C65         C  0.77829736  0.26071563  0.14173490    -0.12500
C66         C  0.75147510  0.23030026  0.15966375     0.01150
C67         C  0.72118700  0.20167519  0.14307500    -0.11030
C68         C  0.71686657  0.20375875  0.10878726     0.03640
C69         C  0.74404204  0.23431288  0.09106015    -0.10450
H70         H  0.80141945  0.28320834  0.15455314     0.09240
H71         H  0.70047020  0.17826233  0.15708294     0.06760
H72         H  0.74113270  0.23634287  0.06461174     0.06610
C73         C  0.71057516  0.50902639  0.10815387     0.03650
C74         C  0.73803038  0.50442203  0.09264066    -0.12500
C75         C  0.77059054  0.51182539  0.10957265     0.01150
C76         C  0.77398783  0.52225942  0.14311776    -0.11030
C77         C  0.74449356  0.52191516  0.15978717     0.03640
C78         C  0.71365683  0.51685923  0.14209028    -0.10450
H79         H  0.73372982  0.49504934  0.06724777     0.09240
H80         H  0.79873366  0.52924153  0.15696970     0.06760
H81         H  0.69174778  0.51825913  0.15503275     0.06610
C82         C  0.71394826  0.51548849  0.35549694     0.03650
C83         C  0.71450788  0.52013335  0.32113261    -0.12500
C84         C  0.74357416  0.52234890  0.30223746     0.01150
C85         C  0.77178832  0.51921912  0.31774434    -0.11030
C86         C  0.77177075  0.51498591  0.35223640     0.03640
C87         C  0.74242226  0.51274190  0.37095674    -0.10450
H88         H  0.69206863  0.52140487  0.30904999     0.09240
H89         H  0.79339688  0.51943727  0.30283430     0.06760
H90         H  0.74175467  0.50902522  0.39754615     0.06610
C91         C  0.46641292  0.20230479  0.35451481     0.03650
C92         C  0.46386842  0.23013489  0.37157216    -0.12500
C93         C  0.46367981  0.25913072  0.35431341     0.01150
C94         C  0.46355972  0.25895467  0.31961230    -0.11030
C95         C  0.46614255  0.23146123  0.30218834     0.03640
C96         C  0.46851772  0.20387786  0.31977428    -0.10450
H97         H  0.46250177  0.22963918  0.39834906     0.09240
H98         H  0.46235731  0.28071159  0.30616273     0.06760
H99         H  0.47211511  0.18365893  0.30621782     0.06610
C100        C  0.45741143  0.19682740  0.10702566     0.03650
C101        C  0.45859813  0.19778124  0.14170241    -0.12500
C102        C  0.45913333  0.22700788  0.15895802     0.01150
C103        C  0.46084021  0.25650296  0.14103599    -0.11030
C104        C  0.45994408  0.25622266  0.10620016     0.03640
C105        C  0.45663464  0.22531519  0.08946664    -0.10450
H106        H  0.45957386  0.17594160  0.15522908     0.09240
H107        H  0.46331671  0.27996779  0.15444689     0.06760
H108        H  0.45505095  0.22400733  0.06272337     0.06610
O109        O  0.51636951  0.58441849  0.04573299    -0.74770
O110        O  0.46660860  0.57854088  0.01704194    -0.53680
C111        C  0.49317654  0.59477606  0.03796473     0.78960
O112        O  0.57576366  0.52253849  0.41614006    -0.59370
O113        O  0.56762442  0.47122257  0.44344815    -0.52400
C114        C  0.58467805  0.49798567  0.42274179     0.70970
O115        O  0.51343285  0.58410827  0.41660532    -0.73930
O116        O  0.46445639  0.57765528  0.44630426    -0.54500
C117        C  0.48985349  0.59402054  0.42432828     0.76970
O118        O  0.57376766  0.51758404  0.04734638    -0.59080
O119        O  0.56781983  0.46976404  0.01566142    -0.52200
C120        C  0.58330676  0.49405600  0.03853334     0.73570
Zr121      Zr  0.52870866  0.53532286  0.03061911     2.54710
O122        O  0.58857438  0.59205634  0.02911165    -0.79640
O123        O  0.52706033  0.53406828  0.09085731    -0.93060
Zr124      Zr  0.52838272  0.53692811  0.43238544     2.64680
O125        O  0.58617451  0.59586410  0.43432951    -0.98010
O126        O  0.52758933  0.53606870  0.37215875    -0.80070
O127        O  0.51158050  0.55478396  0.48198370    -0.83430
O128        O  0.54678183  0.51879909  0.48101482    -2.18140
O129        O  0.44777414  0.39384265  0.04548165    -0.66820
O130        O  0.49779874  0.40098339  0.01691361    -0.51390
C131        C  0.47195887  0.38455559  0.03857340     0.71950
O132        O  0.38420373  0.45577989  0.41825827    -0.59730
O133        O  0.39295522  0.50691704  0.44627182    -0.51710
C134        C  0.37566192  0.48041551  0.42550329     0.73750
O135        O  0.44606896  0.39395692  0.41555577    -0.71130
O136        O  0.49592956  0.40049508  0.44381780    -0.49800
C137        C  0.46972310  0.38395578  0.42256501     0.75130
O138        O  0.38418137  0.45393870  0.04453468    -0.66450
O139        O  0.39331460  0.50622931  0.01874572    -0.53650
C140        C  0.37555706  0.47885035  0.03877714     0.73520
Zr141      Zr  0.43302561  0.44111159  0.02996825     2.77540
O142        O  0.37463818  0.38275055  0.03206878    -0.97200
O143        O  0.43751651  0.44597194  0.08992848    -0.78020
Zr144      Zr  0.43291657  0.44228928  0.43171792     2.70070
O145        O  0.37472638  0.38394616  0.42848740    -0.79270
O146        O  0.43807757  0.45016029  0.37190287    -0.98360
Zr147      Zr  0.44582800  0.52469183  0.48211076     2.21500
Zr148      Zr  0.51530137  0.45298437  0.48009511     2.11130
O149        O  0.44948339  0.42274527  0.48049730    -2.47040
O150        O  0.41465604  0.45897613  0.48123194    -0.79060
O151        O  0.49838130  0.46991257  0.03045325    -0.71260
O152        O  0.46297558  0.50765361  0.43187609    -2.32220
O153        O  0.46320459  0.50647588  0.03170760    -2.28430
O154        O  0.49835849  0.47143100  0.43052014    -0.73020
H155        H  0.57327722  0.52922596  0.48103037     0.78980
H156        H  0.45504129  0.51593244  0.41295170     0.80060
H157        H  0.43849735  0.39620999  0.48036222     0.82290
H158        H  0.45536707  0.51428102  0.05100431     0.79900
H159        H  0.50167055  0.52793214  0.36615859     0.42930
H160        H  0.45765113  0.44473172  0.36550020     0.41900
H161        H  0.36846353  0.37586669  0.45179887     0.41580
H162        H  0.37849933  0.36574375  0.01792434     0.39510
H163        H  0.46433870  0.46140715  0.09439203     0.42650
H164        H  0.50501553  0.53571664  0.09680562     0.37430
H165        H  0.58685514  0.60608813  0.01013594     0.43550
H166        H  0.60302416  0.59103714  0.44782175     0.39960
H167        H  0.37332485  0.37349127  0.05488013     0.44880
H168        H  0.54832297  0.55820128  0.09751574     0.43600
H169        H  0.59620833  0.59951875  0.41157663     0.43740
H170        H  0.41490530  0.42909139  0.36324944     0.44100
O171        O  0.04463589  0.59333626  0.41747524    -0.74770
O172        O  0.08781547  0.58542383  0.44474603    -0.53680
C173        C  0.07824688  0.60272414  0.42437975     0.78960
O174        O  0.92096066  0.52671357  0.04803989    -0.59370
O175        O  0.87774133  0.47966708  0.01620195    -0.52400
C176        C  0.88745119  0.50411421  0.03910564     0.70970
O177        O  0.04558944  0.59092654  0.04561566    -0.73930
O178        O  0.08863219  0.58476659  0.01593548    -0.54500
C179        C  0.07906790  0.60070996  0.03763853     0.76970
O180        O  0.91999697  0.52437828  0.41226321    -0.59080
O181        O  0.87708081  0.47691723  0.44351546    -0.52200
C182        C  0.88627116  0.50060343  0.41996870     0.73570
Zr183      Zr  0.98241502  0.54411445  0.43193648     2.54710
O184        O  0.97779172  0.59948311  0.43683989    -0.79640
O185        O  0.98490952  0.54779290  0.37175879    -0.93060
Zr186      Zr  0.98305003  0.54333020  0.03002021     2.64680
O187        O  0.98292928  0.60130943  0.02786153    -0.98010
O188        O  0.98429900  0.54294933  0.09024147    -0.80070
O189        O  0.01870593  0.56234565  0.48080391    -0.83430
O190        O  0.94682080  0.52636175  0.48108378    -2.18140
O191        O  0.92054312  0.40247839  0.41445916    -0.66820
O192        O  0.87737629  0.40744628  0.44513273    -0.51390
C193        C  0.88702166  0.39199446  0.42296691     0.71950
O194        O  0.04410192  0.46133490  0.04334043    -0.59730
O195        O  0.08776468  0.51243559  0.01601654    -0.51710
C196        C  0.07786165  0.48534466  0.03645216     0.73750
O197        O  0.92064245  0.40210178  0.04614856    -0.71130
O198        O  0.87719589  0.40814282  0.01737125    -0.49800
C199        C  0.88692513  0.39220994  0.03910258     0.75130
O200        O  0.04596645  0.46725507  0.41308696    -0.66450
O201        O  0.08878813  0.51732765  0.44184599    -0.53650
C202        C  0.07963789  0.49233137  0.41957024     0.73520
Zr203      Zr  0.98309383  0.44981996  0.43061949     2.77540
O204        O  0.98501997  0.39276729  0.43125003    -0.97200
O205        O  0.98079692  0.45115814  0.37051248    -0.78020
Zr206      Zr  0.98267022  0.44871610  0.02888533     2.70070
O207        O  0.98000090  0.38939167  0.02802721    -0.79270
O208        O  0.98552990  0.45225256  0.08900879    -0.98360
Zr209      Zr  0.05384078  0.53205751  0.48024259     2.21500
Zr210      Zr  0.91177991  0.46054701  0.48072819     2.11130
O211        O  0.94723341  0.43057328  0.47982823    -2.47040
O212        O  0.01882389  0.46635037  0.47978474    -0.79060
O213        O  0.94686464  0.47871949  0.43082125    -0.71260
O214        O  0.01882203  0.51400447  0.03019545    -2.32220
O215        O  0.01853062  0.51518773  0.43040163    -2.28430
O216        O  0.94677542  0.47782686  0.03056165    -0.73020
H217        H  0.93084293  0.53673896  0.48106668     0.78980
H218        H  0.03483275  0.52166106  0.04929515     0.80060
H219        H  0.93142322  0.40406547  0.47991858     0.82290
H220        H  0.03435978  0.52371382  0.41114713     0.79900
H221        H  0.00060881  0.53301961  0.09593053     0.42930
H222        H  0.96460565  0.45558682  0.09547279     0.41900
H223        H  0.99287844  0.38987828  0.00733147     0.41580
H224        H  0.96383878  0.37561544  0.44528041     0.39510
H225        H  0.97575549  0.47131671  0.36549078     0.42650
H226        H  0.00733570  0.54693276  0.36561044     0.37430
H227        H  0.99666914  0.61474013  0.45353259     0.43550
H228        H  0.96004765  0.59544834  0.01577342     0.39960
H229        H  0.97776632  0.38281534  0.40856866     0.44880
H230        H  0.99115184  0.57341677  0.36667008     0.43600
H231        H  0.97813459  0.60555690  0.05095435     0.43740
H232        H  0.97807062  0.42687654  0.09633352     0.44100
O233        O  0.51937715  0.92926313  0.41846275    -0.74770
O234        O  0.46775820  0.88662374  0.44563104    -0.53680
C235        C  0.49452316  0.89564740  0.42518402     0.78960
O236        O  0.58074784  0.05183523  0.04930166    -0.59370
O237        O  0.57586508  0.09570180  0.01964575    -0.52400
C238        C  0.59126496  0.08551055  0.04150839     0.70970
O239        O  0.51562361  0.92663541  0.04727598    -0.73930
O240        O  0.46591845  0.88488596  0.01753653    -0.54500
C241        C  0.49108461  0.89320375  0.03938805     0.76970
O242        O  0.58222572  0.05391590  0.41723756    -0.59080
O243        O  0.57565191  0.09687962  0.44630804    -0.52200
C244        C  0.59204318  0.08747041  0.42485637     0.73570
Zr245      Zr  0.53424577  0.99162306  0.43347088     2.54710
O246        O  0.59229492  0.99153450  0.43409620    -0.79640
O247        O  0.53230172  0.99189927  0.37325904    -0.93060
Zr248      Zr  0.53310571  0.99011661  0.03185070     2.64680
O249        O  0.58987773  0.98755761  0.03010840    -0.98010
O250        O  0.53166420  0.98930115  0.09206996    -0.80070
O251        O  0.51583349  0.95508522  0.48233002    -0.83430
O252        O  0.55284299  0.02661244  0.48295123    -2.18140
O253        O  0.45693107  0.05535493  0.41708289    -0.66820
O254        O  0.50641243  0.09793588  0.44658284    -0.51390
C255        C  0.48085504  0.08890274  0.42480286     0.71950
O256        O  0.39103635  0.93053875  0.04703407    -0.59730
O257        O  0.39757321  0.88708521  0.01859815    -0.51710
C258        C  0.38148897  0.89700549  0.03990848     0.73750
O259        O  0.45363501  0.05466082  0.04578889    -0.71130
O260        O  0.50512250  0.09757546  0.01810864    -0.49800
C261        C  0.47828694  0.08815600  0.03857280     0.75130
O262        O  0.39048177  0.93094174  0.41845344    -0.66450
O263        O  0.39713933  0.88718441  0.44617937    -0.53650
C264        C  0.38037118  0.89721337  0.42570569     0.73520
Zr265      Zr  0.44021692  0.99275180  0.43297448     2.77540
O266        O  0.38280563  0.99415130  0.43194675    -0.97200
O267        O  0.44332750  0.99191803  0.37287295    -0.78020
Zr268      Zr  0.43947720  0.99239051  0.03125927     2.70070
O269        O  0.38135499  0.99232816  0.03140684    -0.79270
O270        O  0.44305943  0.99267784  0.09137906    -0.98360
Zr271      Zr  0.45002703  0.92105333  0.48192048     2.21650
Zr272      Zr  0.52338327  0.06266258  0.48289396     2.11130
O273        O  0.45751633  0.02813296  0.48218509    -2.47040
O274        O  0.42045276  0.95679305  0.48202768    -0.79060
O275        O  0.50579809  0.02820754  0.43276599    -0.71260
O276        O  0.46773053  0.95568776  0.03194898    -2.32220
O277        O  0.46866099  0.95627611  0.43206125    -2.28430
O278        O  0.50503829  0.02729314  0.03267696    -0.73020
H279        H  0.57942473  0.04223246  0.48306694     0.78980
H280        H  0.45933514  0.93967119  0.05104489     0.80060
H281        H  0.44723935  0.04419813  0.48198918     0.82290
H282        H  0.46046265  0.94039323  0.41289211     0.79900
H283        H  0.50505110  0.97523006  0.09781990     0.42930
H284        H  0.46735402  0.01456331  0.09664852     0.41900
H285        H  0.37088573  0.98338633  0.00910782     0.41580
H286        H  0.38755403  0.01535112  0.44608527     0.39510
H287        H  0.46954267  0.00971394  0.36756539     0.42650
H288        H  0.50869309  0.96949414  0.36734625     0.37430
H289        H  0.58896254  0.97354018  0.45159281     0.43550
H290        H  0.60404216  0.00359260  0.01126060     0.39960
H291        H  0.38133119  0.00211306  0.40919331     0.44880
H292        H  0.55163356  0.98634405  0.36629928     0.43600
H293        H  0.60390432  0.00124734  0.04996805     0.43740
H294        H  0.42472635  0.99941764  0.09882726     0.44100
C295        C  0.48666757  0.33393565  0.04301142    -0.11750
C296        C  0.46943135  0.35230524  0.05648158     0.05260
C297        C  0.44942168  0.33891201  0.08642808    -0.07040
C298        C  0.44511252  0.30654373  0.10068721    -0.07780
C299        C  0.46317277  0.28870050  0.08786375    -0.02330
C300        C  0.48490333  0.30323155  0.05881737     0.04480
N301        N  0.50688933  0.28867720  0.04589276     0.66990
H302        H  0.50269001  0.34418856  0.02045075     0.15890
H303        H  0.42849854  0.29608624  0.12289507     0.15600
N304        N  0.43568925  0.35915395  0.10410889     0.74700
O305        O  0.50925100  0.28575354  0.51502426    -0.38750
O306        O  0.52798327  0.28371377  0.06481633    -0.38700
O307        O  0.40394526  0.34229478  0.11711975    -0.39400
O308        O  0.45781328  0.39218140  0.11236211    -0.39470
C309        C  0.44172301  0.11841967  0.04943762    -0.11750
C310        C  0.47447457  0.11762635  0.05456054     0.05260
C311        C  0.50108994  0.14269131  0.07699743    -0.07040
C312        C  0.49397470  0.16732914  0.09427094    -0.07780
C313        C  0.46135333  0.16826583  0.08918951    -0.02330
C314        C  0.43478335  0.14360233  0.06632827     0.04480
N315        N  0.40047441  0.14290452  0.06066294     0.66990
H316        H  0.42110935  0.09872954  0.03255664     0.15890
H317        H  0.51458667  0.18665894  0.11137512     0.15600
N318        N  0.53490431  0.14294764  0.08334067     0.74700
O319        O  0.38391281  0.13174958  0.03332986    -0.38750
O320        O  0.38480172  0.15004478  0.08377651    -0.38700
O321        O  0.55603888  0.14640794  0.05966176    -0.39400
O322        O  0.54696076  0.14698737  0.11256925    -0.39470
C323        C  0.43849313  0.19880493  0.24962707    -0.11750
C324        C  0.46559720  0.23087053  0.26551581     0.05260
C325        C  0.49023276  0.26188404  0.24628062    -0.07040
C326        C  0.48697269  0.25990085  0.21168869    -0.07780
C327        C  0.45984874  0.22783446  0.19572960    -0.02330
C328        C  0.43481069  0.19703590  0.21506370     0.04480
N329        N  0.40463135  0.16455314  0.20031689     0.66990
H330        H  0.41902265  0.17541807  0.26444027     0.15890
H331        H  0.50661333  0.28328941  0.19699290     0.15600
N332        N  0.51931340  0.29503185  0.26118859     0.74700
O333        O  0.39302967  0.13326397  0.21349961    -0.38750
O334        O  0.38652198  0.16749114  0.17671311    -0.38700
O335        O  0.53709915  0.29321463  0.28563672    -0.39400
O336        O  0.52985884  0.32605895  0.24786211    -0.39470
C337        C  0.49361677  0.34106115  0.41182101    -0.11750
C338        C  0.46694224  0.35123973  0.40511997     0.05260
C339        C  0.43857872  0.32985961  0.38202023    -0.07040
C340        C  0.43792682  0.29984390  0.36620083    -0.07780
C341        C  0.46509983  0.29050056  0.37243464    -0.02330
C342        C  0.49339144  0.31145383  0.39552887     0.04480
N343        N  0.52288753  0.30411546  0.40181107     0.66990
H344        H  0.51572105  0.35694977  0.42919364     0.15890
H345        H  0.41606770  0.28379337  0.34862584     0.15600
N346        N  0.41026474  0.33810696  0.37399092     0.74700
O347        O  0.53857879  0.29781905  0.37814089    -0.38750
O348        O  0.53625628  0.30827239  0.43053883    -0.38700
O349        O  0.41722155  0.36391748  0.35391420    -0.39400
O350        O  0.37707036  0.31524086  0.38132242    -0.39470
C351        C  0.45564872  0.10936567  0.37877342    -0.11750
C352        C  0.47802391  0.11866656  0.40718945     0.05260
C353        C  0.49528551  0.15548594  0.41876800    -0.07040
C354        C  0.49080420  0.18192768  0.40142740    -0.07780
C355        C  0.46850628  0.17258590  0.37299166    -0.02330
C356        C  0.44988868  0.13539499  0.36211685     0.04480
N357        N  0.42378482  0.12306778  0.33529263     0.66990
H358        H  0.44139633  0.08116533  0.36986123     0.15890
H359        H  0.50536778  0.21019599  0.41018503     0.15600
N360        N  0.51643722  0.16642545  0.44864798     0.74700
O361        O  0.42128957  0.09850206  0.31569706    -0.38750
O362        O  0.40022312  0.13333168  0.33348174    -0.38700
O363        O  0.55003279  0.17523844  0.44802512    -0.39400
O364        O  0.50359954  0.17353877  0.47401133    -0.39470
C365        C  0.64918216  0.53694264  0.40331503    -0.11750
C366        C  0.61756111  0.50163502  0.40568112     0.05260
C367        C  0.61839173  0.47087843  0.39243524    -0.07040
C368        C  0.65101618  0.47631073  0.37752012    -0.07780
C369        C  0.68241896  0.51161962  0.37492381    -0.02330
C370        C  0.68183536  0.54250108  0.38823006     0.04480
N371        N  0.71354130  0.57939851  0.38650378     0.66990
H372        H  0.64854413  0.56033071  0.41390827     0.15890
H373        H  0.65150508  0.45299404  0.36655802     0.15600
N374        N  0.58602278  0.43457522  0.39207707     0.74700
O375        O  0.70943458  0.60710485  0.38926847    -0.38750
O376        O  0.74595637  0.58467636  0.38501426    -0.38700
O377        O  0.55480503  0.43052886  0.38512194    -0.39400
O378        O  0.58930798  0.40630597  0.39389542    -0.39470
C379        C  0.79149775  0.48155694  0.39026147    -0.11750
C380        C  0.80151992  0.51139570  0.36866872     0.05260
C381        C  0.83943593  0.53615259  0.36229178    -0.07040
C382        C  0.86614500  0.53093609  0.37833257    -0.07780
C383        C  0.85630497  0.50171417  0.40085110    -0.02330
C384        C  0.81817282  0.47594816  0.40585923     0.04480
N385        N  0.80578228  0.44328720  0.42558995     0.66990
H386        H  0.76247842  0.46162712  0.39422202     0.15890
H387        H  0.89501993  0.55094689  0.37392413     0.15600
N388        N  0.85151387  0.56749519  0.34070527     0.74700
O389        O  0.77983451  0.43403721  0.44612237    -0.38750
O390        O  0.81534103  0.42014330  0.41787769    -0.38700
O391        O  0.83701504  0.58750523  0.34249368    -0.39400
O392        O  0.87932235  0.57752060  0.32225109    -0.39470
C393        C  0.64984938  0.51597117  0.04149307    -0.11750
C394        C  0.61474381  0.49535008  0.05583196     0.05260
C395        C  0.61076726  0.47847362  0.08704348    -0.07040
C396        C  0.64252895  0.48311579  0.10321039    -0.07780
C397        C  0.67800592  0.50455089  0.08933975    -0.02330
C398        C  0.68165666  0.52144267  0.05805815     0.04480
N399        N  0.71726156  0.54575669  0.04356153     0.66990
H400        H  0.65264883  0.52936504  0.01782043     0.15890
H401        H  0.63950935  0.46952310  0.12678255     0.15600
N402        N  0.57513972  0.45686279  0.10273969     0.74700
O403        O  0.72145652  0.54633324  0.51258841    -0.38750
O404        O  0.74308706  0.57007527  0.06097826    -0.38700
O405        O  0.54601930  0.43959435  0.08575021    -0.39400
O406        O  0.57291775  0.45281325  0.13378085    -0.39470
C407        C  0.75812374  0.55548778  0.21291057    -0.11750
C408        C  0.74355175  0.52166626  0.19624093     0.05260
C409        C  0.72733378  0.48807464  0.21450948    -0.07040
C410        C  0.72750563  0.48992266  0.24916345    -0.07780
C411        C  0.74244841  0.52364265  0.26584195    -0.02330
C412        C  0.75748620  0.55708177  0.24767838     0.04480
N413        N  0.77231636  0.59252532  0.26371682     0.66990
H414        H  0.76966523  0.58076262  0.19853923     0.15890
H415        H  0.71615596  0.46471133  0.26362218     0.15600
N416        N  0.71044691  0.45205071  0.19894317     0.74700
O417        O  0.79402468  0.62181768  0.24825424    -0.38750
O418        O  0.76157262  0.59521025  0.29220192    -0.38700
O419        O  0.71442080  0.44837253  0.16851640    -0.39400
O420        O  0.69159576  0.42317532  0.21599354    -0.39470
C421        C  0.80643243  0.51766397  0.05786221    -0.11750
C422        C  0.80064533  0.50893100  0.09190142     0.05260
C423        C  0.82421578  0.49846801  0.10801876    -0.07040
C424        C  0.85327947  0.49891661  0.09039605    -0.07780
C425        C  0.85803188  0.50673896  0.05651941    -0.02330
C426        C  0.83407796  0.51578908  0.03985090     0.04480
N427        N  0.83778347  0.52390672  0.50496347     0.66990
H428        H  0.78994907  0.52698014  0.04501800     0.15890
H429        H  0.87116345  0.49101394  0.10288155     0.15600
N430        N  0.81802593  0.48510636  0.14146233     0.74700
O431        O  0.80945022  0.51514817  0.48763581    -0.38750
O432        O  0.86933737  0.54246663  0.49184523    -0.38700
O433        O  0.78657718  0.45914869  0.15010539    -0.39400
O434        O  0.84503286  0.49540157  0.16095537    -0.39470
C435        C  0.68953657  0.15872527  0.06265270    -0.11750
C436        C  0.68403527  0.17406572  0.09143015     0.05260
C437        C  0.64762145  0.15985254  0.10369682    -0.07040
C438        C  0.61807278  0.12972488  0.08767569    -0.07780
C439        C  0.62369912  0.11472450  0.05889182    -0.02330
C440        C  0.65982497  0.12925119  0.04619064     0.04480
N441        N  0.66690800  0.11420015  0.01704321     0.66990
H442        H  0.71736463  0.16913948  0.05341564     0.15890
H443        H  0.59024229  0.11856514  0.09710434     0.15600
N444        N  0.63994372  0.17663534  0.13123214     0.74700
O445        O  0.69518412  0.13272770  0.49967276    -0.38750
O446        O  0.65018424  0.07972146  0.01256186    -0.38700
O447        O  0.65613130  0.21137468  0.13368352    -0.39400
O448        O  0.61393400  0.15700323  0.15098776    -0.39470
C449        C  0.79542504  0.32199748  0.07901809    -0.11750
C450        C  0.80321887  0.29452507  0.08863641     0.05260
C451        C  0.83846180  0.29916298  0.08219481    -0.07040
C452        C  0.86515668  0.33160203  0.06639057    -0.07780
C453        C  0.85764186  0.35943874  0.05686436    -0.02330
C454        C  0.82236125  0.35471770  0.06374427     0.04480
N455        N  0.81413276  0.38354006  0.05745252     0.66990
H456        H  0.76861969  0.31860386  0.08483377     0.15890
H457        H  0.89189448  0.33476139  0.06077019     0.15600
N458        N  0.84753459  0.27134432  0.09108355     0.74700
O459        O  0.78214698  0.37548820  0.04815150    -0.38750
O460        O  0.83654080  0.41618649  0.06650734    -0.38700
O461        O  0.82310667  0.23750542  0.09090165    -0.39400
O462        O  0.88076399  0.28026726  0.09621060    -0.39470
C463        C  0.68588128  0.14563512  0.38348353    -0.11750
C464        C  0.68327107  0.17592070  0.37244640     0.05260
C465        C  0.65062991  0.17714047  0.37854160    -0.07040
C466        C  0.62164428  0.14791488  0.39611187    -0.07780
C467        C  0.62425328  0.11762181  0.40741987    -0.02330
C468        C  0.65692796  0.11649616  0.40109606     0.04480
N469        N  0.66183559  0.08695158  0.41320282     0.66990
H470        H  0.71107676  0.14508655  0.37880806     0.15890
H471        H  0.59651736  0.14859109  0.40078770     0.15600
N472        N  0.64585769  0.20693601  0.36660069     0.74700
O473        O  0.68135937  0.07723535  0.39715124    -0.38750
O474        O  0.65099832  0.07392595  0.44184940    -0.38700
O475        O  0.61378895  0.20150500  0.36122501    -0.39400
O476        O  0.67308816  0.23927366  0.36349077    -0.39470
C477        C  0.72907868  0.24111987  0.21195018    -0.11750
C478        C  0.75215858  0.23068824  0.19616397     0.05260
C479        C  0.77375193  0.22017672  0.21534303    -0.07040
C480        C  0.77088690  0.22016448  0.25010812    -0.07780
C481        C  0.74739108  0.23023396  0.26575431    -0.02330
C482        C  0.72632485  0.24108169  0.24645777     0.04480
N483        N  0.70281256  0.25301615  0.26119196     0.66990
H484        H  0.71265775  0.24905325  0.19706410     0.15890
H485        H  0.78728974  0.21251465  0.26530357     0.15600
N486        N  0.79806197  0.20909935  0.20050925     0.74700
O487        O  0.69878419  0.27771804  0.24722569    -0.38750
O488        O  0.68257818  0.23607587  0.28567522    -0.38700
O489        O  0.80847419  0.21680905  0.17080748    -0.39400
O490        O  0.81077911  0.19285862  0.21770546    -0.39470
C491        C  0.81333440  0.29376336  0.40233022    -0.11750
C492        C  0.80031174  0.29869645  0.37175111     0.05260
C493        C  0.81531517  0.33503634  0.35893569    -0.07040
C494        C  0.84434260  0.36474512  0.37587035    -0.07780
C495        C  0.85743018  0.35948017  0.40606351    -0.02330
C496        C  0.84126829  0.32367954  0.41995420     0.04480
N497        N  0.85258488  0.31701763  0.45167574     0.66990
H498        H  0.80227053  0.26616316  0.41230776     0.15890
H499        H  0.85600003  0.39249712  0.36601601     0.15600
N500        N  0.80040702  0.34260493  0.32986950     0.74700
O501        O  0.82982516  0.29042741  0.46951455    -0.38750
O502        O  0.88578632  0.33574558  0.46103753    -0.38700
O503        O  0.76584439  0.32688525  0.32577413    -0.39400
O504        O  0.82141970  0.36840487  0.31047212    -0.39470
C505        C  0.30867266  0.45766224  0.42160147    -0.11750
C506        C  0.34408519  0.47841528  0.40778756     0.05260
C507        C  0.34869479  0.49630431  0.37703771    -0.07040
C508        C  0.31756641  0.49356009  0.36134003    -0.07780
C509        C  0.28171779  0.47213289  0.37455062    -0.02330
C510        C  0.27725712  0.45360783  0.40511775     0.04480
N511        N  0.24134819  0.42954505  0.41914435     0.66990
H512        H  0.30538084  0.44353628  0.44494620     0.15890
H513        H  0.32142396  0.50831090  0.33829762     0.15600
N514        N  0.38440954  0.51726455  0.36133964     0.74700
O515        O  0.21494957  0.40730095  0.40095916    -0.38750
O516        O  0.23705344  0.42731719  0.45015547    -0.38700
O517        O  0.40824541  0.50746340  0.36402884    -0.39400
O518        O  0.39065111  0.54308615  0.34149038    -0.39470
C519        C  0.14646244  0.51156311  0.41330276    -0.11750
C520        C  0.11016985  0.49199894  0.40075862     0.05260
C521        C  0.10382561  0.47150490  0.37126037    -0.07040
C522        C  0.13252477  0.46781410  0.35752031    -0.07780
C523        C  0.16846112  0.48617216  0.37089099    -0.02330
C524        C  0.17546364  0.50886561  0.39892234     0.04480
N525        N  0.21181380  0.53001402  0.41278897     0.66990
H526        H  0.15270829  0.52964937  0.43434777     0.15890
H527        H  0.12676824  0.45093614  0.33561790     0.15600
N528        N  0.06954301  0.45669135  0.35351917     0.74700
O529        O  0.23893777  0.55124671  0.39471129    -0.38750
O530        O  0.21655218  0.52899081  0.44352912    -0.38700
O531        O  0.05668336  0.47741993  0.34668430    -0.39400
O532        O  0.05630652  0.42590440  0.33910369    -0.39470
C533        C  0.19107181  0.45262965  0.25013273    -0.11750
C534        C  0.22485878  0.47471960  0.26629170     0.05260
C535        C  0.25744563  0.49472250  0.24720229    -0.07040
C536        C  0.25511729  0.49250255  0.21254465    -0.07780
C537        C  0.22120457  0.47040235  0.19629340    -0.02330
C538        C  0.18895569  0.44962022  0.21563593     0.04480
N539        N  0.15437469  0.42340845  0.20094750     0.66990
H540        H  0.16621342  0.43622871  0.26462100     0.15890
H541        H  0.27998707  0.50912543  0.19818713     0.15600
N542        N  0.29283570  0.51816770  0.26230029     0.74700
O543        O  0.15285488  0.39864535  0.18222531    -0.38750
O544        O  0.12467889  0.42079548  0.21121602    -0.38700
O545        O  0.32157158  0.52006727  0.25029343    -0.39400
O546        O  0.29606473  0.53964733  0.28554934    -0.39470
C547        C  0.29640683  0.45070502  0.10014973    -0.11750
C548        C  0.27909252  0.46947890  0.08768910     0.05260
C549        C  0.29380142  0.49132266  0.05870514    -0.07040
C550        C  0.32453795  0.49309905  0.04294535    -0.07780
C551        C  0.34267343  0.47551454  0.05626004    -0.02330
C552        C  0.32864485  0.45468620  0.08577324     0.04480
N553        N  0.34818845  0.43981829  0.10301021     0.66990
H554        H  0.28571096  0.43387317  0.12222324     0.15890
H555        H  0.33506663  0.50948186  0.02059148     0.15600
N556        N  0.27945052  0.51352687  0.04585308     0.74700
O557        O  0.38121661  0.46117948  0.11185046    -0.38750
O558        O  0.33066417  0.40767469  0.11514066    -0.38700
O559        O  0.27590979  0.53557773  0.06460728    -0.39400
O560        O  0.27545953  0.51512756  0.51504069    -0.39470
C561        C  0.09746931  0.46064185  0.08353040    -0.11750
C562        C  0.10681636  0.48111480  0.05394859     0.05260
C563        C  0.14306728  0.49596396  0.04147403    -0.07040
C564        C  0.16955874  0.49245529  0.05976185    -0.07780
C565        C  0.16008006  0.47143890  0.08905110    -0.02330
C566        C  0.12304624  0.45434685  0.10034475     0.04480
N567        N  0.11012186  0.42818785  0.12703686     0.66990
H568        H  0.06947489  0.44793405  0.09299926     0.15890
H569        H  0.19751197  0.50519382  0.05022888     0.15600
N570        N  0.15220114  0.51076755  0.50871178     0.74700
O571        O  0.08680046  0.42722512  0.14740118    -0.38750
O572        O  0.11642440  0.40178444  0.12647724    -0.38700
O573        O  0.18279775  0.53964467  0.50302052    -0.39400
O574        O  0.13330157  0.49082697  0.48484695    -0.39470
C575        C  0.12200830  0.66778774  0.04113075    -0.11750
C576        C  0.10872968  0.63265670  0.05494411     0.05260
C577        C  0.12200946  0.62895769  0.08598058    -0.07040
C578        C  0.14869547  0.66086481  0.10230006    -0.07780
C579        C  0.16199445  0.69632898  0.08877674    -0.02330
C580        C  0.14797323  0.69975490  0.05788762     0.04480
N581        N  0.15804505  0.73522170  0.04410294     0.66990
H582        H  0.11088738  0.67038932  0.01771014     0.15890
H583        H  0.15979645  0.65787259  0.12555223     0.15600
N584        N  0.10878798  0.59339574  0.10136646     0.74700
O585        O  0.16139765  0.74018234  0.51318180    -0.38750
O586        O  0.15837034  0.75986502  0.06219986    -0.38700
O587        O  0.09969793  0.56501240  0.08412649    -0.39400
O588        O  0.10897846  0.59075641  0.13248695    -0.39470
C589        C  0.32035735  0.82271690  0.10166577    -0.11750
C590        C  0.28516927  0.81424423  0.09057551     0.05260
C591        C  0.28221747  0.83365840  0.06323818    -0.07040
C592        C  0.31436159  0.85942387  0.04657571    -0.07780
C593        C  0.34944729  0.86783575  0.05764339    -0.02330
C594        C  0.35287583  0.85012313  0.08628175     0.04480
N595        N  0.38828961  0.85997569  0.10084343     0.66990
H596        H  0.32235157  0.80787894  0.12278871     0.15890
H597        H  0.31213036  0.87427608  0.02553861     0.15600
N598        N  0.24726846  0.82938375  0.05349355     0.74700
O599        O  0.38968396  0.84590785  0.12808598    -0.38750
O600        O  0.41836976  0.88297026  0.08724459    -0.38700
O601        O  0.22520846  0.82857584  0.07520118    -0.39400
O602        O  0.24095262  0.83234056  0.02343060    -0.39470
C603        C  0.13565628  0.69725734  0.38427005    -0.11750
C604        C  0.16706569  0.69603207  0.37442091     0.05260
C605        C  0.16935604  0.66402735  0.38087348    -0.07040
C606        C  0.13989101  0.63417748  0.39742652    -0.07780
C607        C  0.10822313  0.63520351  0.40707583    -0.02330
C608        C  0.10612309  0.66712888  0.40017567     0.04480
N609        N  0.07467504  0.66981877  0.40970248     0.66990
H610        H  0.13382363  0.72165247  0.37904283     0.15890
H611        H  0.14148023  0.60963902  0.40255102     0.15600
N612        N  0.20048670  0.66074873  0.37028073     0.74700
O613        O  0.07848415  0.69361837  0.43081077    -0.38750
O614        O  0.04593274  0.65475893  0.39201911    -0.38700
O615        O  0.23243496  0.68877745  0.36790090    -0.39400
O616        O  0.19661723  0.62923501  0.36550079    -0.39470
C617        C  0.22793249  0.79055967  0.21345482    -0.11750
C618        C  0.21852923  0.75782895  0.19639577     0.05260
C619        C  0.20885535  0.72534178  0.21467395    -0.07040
C620        C  0.20861515  0.72645371  0.24929587    -0.07780
C621        C  0.21840047  0.75924249  0.26642845    -0.02330
C622        C  0.22773859  0.79169546  0.24816780     0.04480
N623        N  0.23604864  0.82561765  0.26421396     0.66990
H624        H  0.23460162  0.81529855  0.19956211     0.15890
H625        H  0.20242587  0.70174672  0.26301669     0.15600
N626        N  0.20101834  0.69151932  0.19875140     0.74700
O627        O  0.25954448  0.85627988  0.25174937    -0.38750
O628        O  0.21730477  0.82523711  0.28882181    -0.38700
O629        O  0.22183711  0.69183682  0.17601754    -0.39400
O630        O  0.17606466  0.66088230  0.21009758    -0.39470
C631        C  0.28640458  0.84351958  0.38450481    -0.11750
C632        C  0.28797511  0.81336200  0.37164207     0.05260
C633        C  0.31931431  0.80983773  0.37773606    -0.07040
C634        C  0.34861400  0.83724119  0.39637207    -0.07780
C635        C  0.34737265  0.86783339  0.40879432    -0.02330
C636        C  0.31548011  0.87060194  0.40345622     0.04480
N637        N  0.31134973  0.89945249  0.41837236     0.66990
H638        H  0.26172025  0.84525218  0.38061581     0.15890
H639        H  0.37315275  0.83530066  0.40040664     0.15600
N640        N  0.32193943  0.77894340  0.36551140     0.74700
O641        O  0.29253787  0.91127651  0.40407407    -0.38750
O642        O  0.32197154  0.90948488  0.44771952    -0.38700
O643        O  0.30671447  0.76332045  0.33867983    -0.39400
O644        O  0.34213991  0.76903712  0.38018153    -0.39470
C645        C  0.47507539  0.67322704  0.39711095    -0.11750
C646        C  0.50238489  0.69045709  0.37265371     0.05260
C647        C  0.52552744  0.67589849  0.36529042    -0.07040
C648        C  0.52009788  0.64413956  0.38196389    -0.07780
C649        C  0.49267174  0.62664241  0.40649668    -0.02330
C650        C  0.46980062  0.64164138  0.41389349     0.04480
N651        N  0.44069255  0.62514474  0.43788826     0.66990
H652        H  0.45678996  0.68377509  0.40261234     0.15890
H653        H  0.53833160  0.63365584  0.37611614     0.15600
N654        N  0.55548466  0.69361509  0.34198027     0.74700
O655        O  0.44027496  0.64423195  0.46180567    -0.38750
O656        O  0.41196506  0.59469513  0.43152022    -0.38700
O657        O  0.57594531  0.72833782  0.34175543    -0.39400
O658        O  0.56414708  0.67446184  0.32413857    -0.39470
C659        C  0.47490768  0.80089713  0.39505743    -0.11750
C660        C  0.50432222  0.81080344  0.37311082     0.05260
C661        C  0.53087730  0.84855207  0.36857473    -0.07040
C662        C  0.52665307  0.87539586  0.38550578    -0.07780
C663        C  0.49726033  0.86564641  0.40783982    -0.02330
C664        C  0.47133592  0.82759974  0.41267913     0.04480
N665        N  0.44192155  0.81522460  0.43617020     0.66990
H666        H  0.45453729  0.77196782  0.39875710     0.15890
H667        H  0.54723389  0.90419256  0.38169603     0.15600
N668        N  0.56287065  0.86006167  0.34793997     0.74700
O669        O  0.40886634  0.79542737  0.42671176    -0.38750
O670        O  0.44929327  0.81667908  0.46657161    -0.38700
O671        O  0.57659170  0.89017810  0.33218312    -0.39400
O672        O  0.58007544  0.84255237  0.34847684    -0.39470
C673        C  0.51556060  0.69237887  0.05790640    -0.11750
C674        C  0.50079663  0.68766103  0.09009571     0.05260
C675        C  0.48328949  0.65171108  0.10432320    -0.07040
C676        C  0.48280594  0.62258274  0.08702381    -0.07780
C677        C  0.49707478  0.62745437  0.05499375    -0.02330
C678        C  0.51324519  0.66264062  0.03980322     0.04480
N679        N  0.52737703  0.66886097  0.50639397     0.66990
H680        H  0.52964253  0.71962539  0.04682053     0.15890
H681        H  0.46947542  0.59526113  0.09809532     0.15600
N682        N  0.46385566  0.64349261  0.13525564     0.74700
O683        O  0.52978783  0.69544114  0.48962247    -0.38750
O684        O  0.53912975  0.64914895  0.49391601    -0.38700
O685        O  0.43993160  0.65285458  0.13992985    -0.39400
O686        O  0.46662313  0.62237739  0.15590597    -0.39470
C687        C  0.52814682  0.86935603  0.06617227    -0.11750
C688        C  0.49307993  0.86252919  0.05609866     0.05260
C689        C  0.46165611  0.82727587  0.06290612    -0.07040
C690        C  0.46644651  0.80075901  0.07984542    -0.07780
C691        C  0.50136414  0.80793080  0.09003191    -0.02330
C692        C  0.53297872  0.84269603  0.08298651     0.04480
N693        N  0.57000866  0.85148895  0.09185548     0.66990
H694        H  0.55224692  0.89600496  0.06084936     0.15890
H695        H  0.44245302  0.77402011  0.08527117     0.15600
N696        N  0.42455546  0.81796779  0.05461197     0.74700
O697        O  0.59763286  0.87776793  0.07758897    -0.38750
O698        O  0.57572033  0.83459137  0.11485342    -0.38700
O699        O  0.41553936  0.81711069  0.52472782    -0.39400
O700        O  0.39910366  0.80084442  0.07556111    -0.39470
C701        C  0.54085557  0.76332439  0.21357875    -0.11750
C702        C  0.50770314  0.75182500  0.19646249     0.05260
C703        C  0.47470059  0.74139945  0.21425796    -0.07040
C704        C  0.47613075  0.74311086  0.24893068    -0.07780
C705        C  0.50922976  0.75455751  0.26603821    -0.02330
C706        C  0.54227588  0.76523621  0.24830417     0.04480
N707        N  0.57729171  0.77850421  0.26481745     0.66990
H708        H  0.56595732  0.77172907  0.19959690     0.15890
H709        H  0.45101845  0.73466778  0.26291722     0.15600
N710        N  0.43965110  0.72864255  0.19790142     0.74700
O711        O  0.60343382  0.77742083  0.25034671    -0.38750
O712        O  0.58359584  0.79458304  0.29242766    -0.38700
O713        O  0.43300383  0.71284933  0.17013516    -0.39400
O714        O  0.41383109  0.73012575  0.21258347    -0.39470
C715        C  0.50424215  0.72046533  0.60817526     0.03650
C716        C  0.51000892  0.72413219  0.64266105    -0.12500
C717        C  0.50852337  0.75224896  0.66000183     0.01150
C718        C  0.50547848  0.77946547  0.64266459    -0.11030
C719        C  0.50345035  0.77841697  0.60810835     0.03640
C720        C  0.50137795  0.74830369  0.59106753    -0.10450
H721        H  0.51413897  0.70435097  0.65643589     0.09240
H722        H  0.50483589  0.80152052  0.65602949     0.06760
H723        H  0.49703201  0.74655559  0.56457000     0.06610
C724        C  0.50487462  0.72245455  0.85435454     0.03650
C725        C  0.50612473  0.72362346  0.81959595    -0.12500
C726        C  0.50784525  0.75353247  0.80246204     0.01150
C727        C  0.50715134  0.78193839  0.81995237    -0.11030
C728        C  0.50582367  0.78116012  0.85462195     0.03640
C729        C  0.50465643  0.75136951  0.87165809    -0.10450
H730        H  0.50541585  0.70115147  0.80579651     0.09240
H731        H  0.50758732  0.80458187  0.80656269     0.06760
H732        H  0.50381776  0.75085304  0.89846513     0.06610
C733        C  0.25516548  0.78465242  0.85423459     0.03650
C734        C  0.25224305  0.78622991  0.81978993    -0.12500
C735        C  0.22080244  0.75893306  0.80313222     0.01150
C736        C  0.19268769  0.72970134  0.82147635    -0.11030
C737        C  0.19591003  0.72772530  0.85580128     0.03640
C738        C  0.22681098  0.75561039  0.87222118    -0.10450
H739        H  0.27480601  0.80829125  0.80600893     0.09240
H740        H  0.16842177  0.70818047  0.80905258     0.06760
H741        H  0.22918561  0.75423147  0.89883078     0.06610
C742        C  0.25204943  0.78511557  0.60806455     0.03650
C743        C  0.24994063  0.78581727  0.64266560    -0.12500
C744        C  0.21904653  0.75831735  0.65964322     0.01150
C745        C  0.18933871  0.73081848  0.64150769    -0.11030
C746        C  0.19152813  0.72870734  0.60694674     0.03640
C747        C  0.22326272  0.75588859  0.59044159    -0.10450
H748        H  0.27269887  0.80755259  0.65645756     0.09240
H749        H  0.16486581  0.71030836  0.65450088     0.06760
H750        H  0.22597295  0.75403139  0.56396686     0.06610
C751        C  0.18942037  0.46843242  0.60739263     0.03650
C752        C  0.21656747  0.46489546  0.59000152    -0.12500
C753        C  0.24728855  0.46736278  0.60644152     0.01150
C754        C  0.24815546  0.46874787  0.64122267    -0.11030
C755        C  0.22009378  0.46975871  0.65935426     0.03640
C756        C  0.19188716  0.47151567  0.64207491    -0.10450
H757        H  0.21433997  0.46127051  0.56342719     0.09240
H758        H  0.27104972  0.46950469  0.65433023     0.06760
H759        H  0.17212081  0.47579930  0.65568821     0.06610
C760        C  0.19782286  0.48170421  0.85433327     0.03650
C761        C  0.22378914  0.47679083  0.87245409    -0.12500
C762        C  0.25049414  0.47153767  0.85614038     0.01150
C763        C  0.24960667  0.46928523  0.82139002    -0.11030
C764        C  0.22491210  0.47550136  0.80300513     0.03640
C765        C  0.19943648  0.48195121  0.81964452    -0.10450
H766        H  0.22360491  0.47760463  0.89917504     0.09240
H767        H  0.26885930  0.46358658  0.80851874     0.06760
H768        H  0.18084376  0.48743778  0.80533484     0.06610
C769        C  0.77185193  0.26540061  0.85363836     0.03650
C770        C  0.74192750  0.23666202  0.87089516    -0.12500
C771        C  0.71490159  0.20537965  0.85413593     0.01150
C772        C  0.71764891  0.20250913  0.81990146    -0.11030
C773        C  0.74680447  0.23123612  0.80224241     0.03640
C774        C  0.77445182  0.26191779  0.81923861    -0.10450
H775        H  0.73901690  0.23887261  0.89729757     0.09240
H776        H  0.69640001  0.17862545  0.80684685     0.06760
H777        H  0.79750944  0.28339076  0.80545800     0.06610
C778        C  0.77491403  0.26247862  0.60736974     0.03650
C779        C  0.77827233  0.26074869  0.64173559    -0.12500
C780        C  0.75148126  0.23031855  0.65967366     0.01150
C781        C  0.72125888  0.20161873  0.64308824    -0.11030
C782        C  0.71702546  0.20360236  0.60878066     0.03640
C783        C  0.74417128  0.23414980  0.59103077    -0.10450
H784        H  0.80133893  0.28329898  0.65455546     0.09240
H785        H  0.70053340  0.17821248  0.65709876     0.06760
H786        H  0.74131011  0.23606956  0.56455902     0.06610
C787        C  0.71057556  0.50902638  0.60815381     0.03650
C788        C  0.73803077  0.50442202  0.59264062    -0.12500
C789        C  0.77059095  0.51182550  0.60957265     0.01150
C790        C  0.77398817  0.52225946  0.64311775    -0.11030
C791        C  0.74449389  0.52191511  0.65978712     0.03640
C792        C  0.71365720  0.51685922  0.64209022    -0.10450
H793        H  0.73373023  0.49504936  0.56724772     0.09240
H794        H  0.79873402  0.52924167  0.65696970     0.06760
H795        H  0.69174815  0.51825913  0.65503268     0.06610
C796        C  0.71394799  0.51548866  0.85549668     0.03650
C797        C  0.71450773  0.52013345  0.82113233    -0.12500
C798        C  0.74357407  0.52234891  0.80223731     0.01150
C799        C  0.77178812  0.51921910  0.81774432    -0.11030
C800        C  0.77177035  0.51498591  0.85223638     0.03640
C801        C  0.74242188  0.51274203  0.87095660    -0.10450
H802        H  0.69206854  0.52140498  0.80904959     0.09240
H803        H  0.79339670  0.51943712  0.80283440     0.06760
H804        H  0.74175418  0.50902536  0.89754602     0.06610
C805        C  0.46641052  0.20230786  0.85450927     0.03650
C806        C  0.46386699  0.23013751  0.87156786    -0.12500
C807        C  0.46368024  0.25913440  0.85430998     0.01150
C808        C  0.46355995  0.25895902  0.81960872    -0.11030
C809        C  0.46614194  0.23146522  0.80218437     0.03640
C810        C  0.46851722  0.20388216  0.81976949    -0.10450
H811        H  0.46249937  0.22964041  0.89834476     0.09240
H812        H  0.46235799  0.28071635  0.80615950     0.06760
H813        H  0.47211502  0.18366358  0.80621279     0.06610
C814        C  0.45739818  0.19681970  0.60702009     0.03650
C815        C  0.45858991  0.19777457  0.64169716    -0.12500
C816        C  0.45913161  0.22700400  0.65895429     0.01150
C817        C  0.46084031  0.25650032  0.64103316    -0.11030
C818        C  0.45994088  0.25621965  0.60619757     0.03640
C819        C  0.45662552  0.22531042  0.58946269    -0.10450
H820        H  0.45956531  0.17593410  0.65522262     0.09240
H821        H  0.46332053  0.27996656  0.65444443     0.06760
H822        H  0.45504109  0.22400370  0.56271941     0.06610
O823        O  0.51636948  0.58441761  0.54573287    -0.74770
O824        O  0.46660843  0.57853988  0.51704201    -0.53680
C825        C  0.49317643  0.59477503  0.53796469     0.78960
O826        O  0.57576339  0.52253904  0.91613966    -0.59370
O827        O  0.56762420  0.47122314  0.94344779    -0.52400
C828        C  0.58467778  0.49798618  0.92274139     0.70970
O829        O  0.51343272  0.58411002  0.91660452    -0.73930
O830        O  0.46445635  0.57765670  0.94630388    -0.54500
C831        C  0.48985335  0.59402234  0.92432780     0.76970
O832        O  0.57376799  0.51758379  0.54734659    -0.59080
O833        O  0.56782001  0.46976364  0.51566175    -0.52200
C834        C  0.58330707  0.49405576  0.53853353     0.73570
Zr835      Zr  0.52870873  0.53532213  0.53061944     2.54710
O836        O  0.58857422  0.59205592  0.52911190    -0.79640
O837        O  0.52706047  0.53406803  0.59085765    -0.93060
Zr838      Zr  0.52838261  0.53692928  0.93238488     2.64680
O839        O  0.58617467  0.59586497  0.93432911    -0.98010
O840        O  0.52758924  0.53606948  0.87215818    -0.80070
O841        O  0.51158046  0.55478484  0.98198336    -0.83430
O842        O  0.54678165  0.51879995  0.98101432    -2.18140
O843        O  0.44777428  0.39384187  0.54548187    -0.66820
O844        O  0.49779887  0.40098262  0.51691379    -0.51390
C845        C  0.47195902  0.38455482  0.53857357     0.71950
O846        O  0.38420342  0.45578017  0.91825813    -0.59730
O847        O  0.39295500  0.50691749  0.94627146    -0.51710
C848        C  0.37566160  0.48041578  0.92550311     0.73750
O849        O  0.44606904  0.39395778  0.91555586    -0.71130
O850        O  0.49592955  0.40049573  0.94381788    -0.49800
C851        C  0.46972303  0.38395650  0.92256517     0.75130
O852        O  0.38418160  0.45393820  0.54453502    -0.66450
O853        O  0.39331481  0.50622876  0.51874603    -0.53650
C854        C  0.37555730  0.47884986  0.53877748     0.73520
Zr855      Zr  0.43302570  0.44111084  0.52996864     2.77540
O856        O  0.37463813  0.38274998  0.53206931    -0.97200
O857        O  0.43751668  0.44597124  0.58992888    -0.78020
Zr858      Zr  0.43291661  0.44229012  0.93171762     2.70070
O859        O  0.37472661  0.38394676  0.92848713    -0.79270
O860        O  0.43807747  0.45016056  0.87190251    -0.98360
Zr861      Zr  0.44582796  0.52469286  0.98211036     2.21500
Zr862      Zr  0.51530130  0.45298518  0.98009480     2.11130
O863        O  0.44948333  0.42274600  0.98049696    -2.47040
O864        O  0.41465611  0.45897709  0.98123156    -0.79060
O865        O  0.49838139  0.46991184  0.53045356    -0.71260
O866        O  0.46297545  0.50765453  0.93187566    -2.32220
O867        O  0.46320467  0.50647509  0.53170805    -2.28430
O868        O  0.49835852  0.47143204  0.93051983    -0.73020
H869        H  0.57327703  0.52922678  0.98102990     0.78980
H870        H  0.45504110  0.51593332  0.91295129     0.80060
H871        H  0.43849730  0.39621072  0.98036191     0.82290
H872        H  0.45536714  0.51428027  0.55100474     0.79900
H873        H  0.50167028  0.52793216  0.86615802     0.42930
H874        H  0.45765097  0.44473187  0.86549992     0.41900
H875        H  0.36846393  0.37586716  0.95179859     0.41580
H876        H  0.37849911  0.36574315  0.51792475     0.39510
H877        H  0.46433887  0.46140659  0.59439240     0.42650
H878        H  0.50501561  0.53571631  0.59680588     0.37430
H879        H  0.58685486  0.60608758  0.51013615     0.43550
H880        H  0.60302407  0.59103783  0.94782155     0.39960
H881        H  0.37332490  0.37349064  0.55488062     0.44880
H882        H  0.54832304  0.55820114  0.59751595     0.43600
H883        H  0.59620866  0.59951947  0.91157631     0.43740
H884        H  0.41490515  0.42909161  0.86324920     0.44100
O885        O  0.04463461  0.59333399  0.91747610    -0.74770
O886        O  0.08781353  0.58542051  0.94474686    -0.53680
C887        C  0.07824552  0.60272161  0.92438081     0.78960
O888        O  0.92096391  0.52671917  0.54804003    -0.59370
O889        O  0.87774372  0.47967102  0.51620407    -0.52400
C890        C  0.88745417  0.50411909  0.53910673     0.70970
O891        O  0.04559331  0.59093124  0.54561518    -0.73930
O892        O  0.08863566  0.58477051  0.51593505    -0.54500
C893        C  0.07907164  0.60071405  0.53763816     0.76970
O894        O  0.91999524  0.52437625  0.91226356    -0.59080
O895        O  0.87707832  0.47691410  0.94351422    -0.52200
C896        C  0.88626920  0.50060124  0.91996840     0.73570
Zr897      Zr  0.98241347  0.54411162  0.93193638     2.54710
O898        O  0.97778984  0.59947993  0.93684133    -0.79640
O899        O  0.98490819  0.54779042  0.87175881    -0.93060
Zr900      Zr  0.98305347  0.54333575  0.53002009     2.64680
O901        O  0.98293349  0.60131539  0.52786113    -0.98010
O902        O  0.98430298  0.54295562  0.59024129    -0.80070
O903        O  0.01870317  0.56234152  0.98080454    -0.83430
O904        O  0.94681863  0.52635786  0.98108307    -2.18140
O905        O  0.92054178  0.40247544  0.91445476    -0.66820
O906        O  0.87737419  0.40744371  0.94512661    -0.51390
C907        C  0.88701995  0.39199193  0.92296083     0.71950
O908        O  0.04410578  0.46134039  0.54334023    -0.59730
O909        O  0.08776871  0.51244003  0.51601530    -0.51710
C910        C  0.07786555  0.48534942  0.53645135     0.73750
O911        O  0.92064550  0.40210852  0.54615291    -0.71130
O912        O  0.87719565  0.40814566  0.51737739    -0.49800
C913        C  0.88692682  0.39221310  0.53910790     0.75130
O914        O  0.04596465  0.46725202  0.91308678    -0.66450
O915        O  0.08878567  0.51732411  0.94184681    -0.53650
C916        C  0.07963587  0.49232834  0.91957067     0.73520
Zr917      Zr  0.98309179  0.44981633  0.93061810     2.77540
O918        O  0.98501741  0.39276334  0.93125022    -0.97200
O919        O  0.98079584  0.45115469  0.87051114    -0.78020
Zr920      Zr  0.98267369  0.44872170  0.52888692     2.70070
O921        O  0.98000243  0.38939644  0.52802546    -0.79270
O922        O  0.98553909  0.45225851  0.58901015    -0.98360
Zr923      Zr  0.05383784  0.53205342  0.98024301     2.21500
Zr924      Zr  0.91177801  0.46054352  0.98072473     2.11130
O925        O  0.94723047  0.43056868  0.97982597    -2.47040
O926        O  0.01882119  0.46634613  0.97978377    -0.79060
O927        O  0.94686348  0.47871676  0.93081886    -0.71260
O928        O  0.01882554  0.51401004  0.53019533    -2.32220
O929        O  0.01852849  0.51518427  0.93040167    -2.28430
O930        O  0.94677910  0.47783247  0.53056394    -0.73020
H931        H  0.93084070  0.53673500  0.98106610     0.78980
H932        H  0.03483658  0.52166694  0.54929482     0.80060
H933        H  0.93141997  0.40406090  0.97991551     0.82290
H934        H  0.03435806  0.52371080  0.91114745     0.79900
H935        H  0.00061024  0.53302291  0.59593034     0.42930
H936        H  0.96461654  0.45559463  0.59547620     0.41900
H937        H  0.99288230  0.38988490  0.50733065     0.41580
H938        H  0.96383519  0.37561139  0.94527956     0.39510
H939        H  0.97575508  0.47131368  0.86548931     0.42650
H940        H  0.00733468  0.54693079  0.86561056     0.37430
H941        H  0.99666805  0.61473711  0.95353340     0.43550
H942        H  0.96005182  0.59545440  0.51577315     0.39960
H943        H  0.97776533  0.38281169  0.90856860     0.44880
H944        H  0.99115006  0.57341418  0.86667024     0.43600
H945        H  0.97813907  0.60556313  0.55095395     0.43740
H946        H  0.97807875  0.42688211  0.59633447     0.44100
O947        O  0.51939475  0.92927798  0.91848264    -0.74770
O948        O  0.46777107  0.88663808  0.94564396    -0.53680
C949        C  0.49453755  0.89566160  0.92519838     0.78960
O950        O  0.58097664  0.05172369  0.54910611    -0.59370
O951        O  0.57605900  0.09565310  0.51959208    -0.52400
C952        C  0.59154046  0.08541250  0.54133895     0.70970
O953        O  0.51559411  0.92659372  0.54727152    -0.73930
O954        O  0.46590063  0.88485552  0.51751604    -0.54500
C955        C  0.49105862  0.89316719  0.53937538     0.76970
O956        O  0.58222468  0.05391681  0.91725080    -0.59080
O957        O  0.57565261  0.09687196  0.94633451    -0.52200
C958        C  0.59204969  0.08746879  0.92488168     0.73570
Zr959      Zr  0.53425479  0.99163414  0.93349989     2.54710
O960        O  0.59228817  0.99151680  0.93415927    -0.79640
O961        O  0.53234390  0.99191271  0.87328683    -0.93060
Zr962      Zr  0.53310456  0.99006374  0.53182071     2.64680
O963        O  0.58971565  0.98720234  0.53016927    -0.98010
O964        O  0.53163849  0.98942401  0.59203940    -0.80070
O965        O  0.51584438  0.95511392  0.98236847    -0.83430
O966        O  0.55284193  0.02665276  0.98297276    -2.18140
O967        O  0.45691060  0.05534613  0.91706753    -0.66820
O968        O  0.50638660  0.09793209  0.94656504    -0.51390
C969        C  0.48083192  0.08889595  0.92478627     0.71950
O970        O  0.39105621  0.93054703  0.54703950    -0.59730
O971        O  0.39756586  0.88708402  0.51859037    -0.51710
C972        C  0.38149396  0.89701085  0.53990806     0.73750
O973        O  0.45363448  0.05466303  0.54576468    -0.71130
O974        O  0.50517419  0.09757946  0.51814560    -0.49800
C975        C  0.47830289  0.08815913  0.53857078     0.75130
O976        O  0.39048075  0.93093173  0.91844919    -0.66450
O977        O  0.39714657  0.88718687  0.94618892    -0.53650
C978        C  0.38037454  0.89720741  0.92571027     0.73520
Zr979      Zr  0.44020448  0.99274228  0.93296362     2.77540
O980        O  0.38278896  0.99413300  0.93192310    -0.97200
O981        O  0.44331772  0.99190261  0.87286282    -0.78020
Zr982      Zr  0.43951008  0.99239589  0.53126430     2.70070
O983        O  0.38138513  0.99232900  0.53141284    -0.79270
O984        O  0.44310018  0.99269928  0.59138365    -0.98360
Zr985      Zr  0.45003596  0.92106703  0.98193344     2.21650
Zr986      Zr  0.52332743  0.06265072  0.98287334     2.11130
O987        O  0.45746655  0.02811961  0.98217302    -2.47040
O988        O  0.42044250  0.95678814  0.98202203    -0.79060
O989        O  0.50578322  0.02819900  0.93275140    -0.71260
O990        O  0.46773329  0.95566465  0.53193788    -2.32220
O991        O  0.46867044  0.95628299  0.93207287    -2.28430
O992        O  0.50507891  0.02728275  0.53268839    -0.73020
H993        H  0.57942145  0.04229927  0.98310744     0.78980
H994        H  0.45933602  0.93964695  0.55103282     0.80060
H995        H  0.44718553  0.04418138  0.98197517     0.82290
H996        H  0.46047984  0.94039740  0.91290546     0.79900
H997        H  0.50503165  0.97515864  0.59778557     0.42930
H998        H  0.46738488  0.01460002  0.59664940     0.41900
H999        H  0.37091840  0.98339265  0.50911210     0.41580
H1000       H  0.38752815  0.01532573  0.94606764     0.39510
H1001       H  0.46953306  0.00969864  0.86755575     0.42650
H1002       H  0.50872807  0.96951962  0.86736709     0.37430
H1003       H  0.58908020  0.97381107  0.95189782     0.43550
H1004       H  0.60364785  0.00267202  0.51096570     0.39960
H1005       H  0.38132284  0.00210378  0.90917124     0.44880
H1006       H  0.55166461  0.98633648  0.86633896     0.43600
H1007       H  0.60405660  0.00140522  0.54971541     0.43740
H1008       H  0.42475071  0.99941762  0.59883022     0.44100
C1009       C  0.48666762  0.33393478  0.54301121    -0.11750
C1010       C  0.46943150  0.35230444  0.55648159     0.05260
C1011       C  0.44942185  0.33891115  0.58642811    -0.07040
C1012       C  0.44511236  0.30654265  0.60068691    -0.07780
C1013       C  0.46317164  0.28869889  0.58786267    -0.02330
C1014       C  0.48490265  0.30323013  0.55881671     0.04480
N1015       N  0.50688811  0.28867511  0.54589217     0.66990
H1016       H  0.50269022  0.34418784  0.52045065     0.15890
H1017       H  0.42849860  0.29608505  0.62289491     0.15600
N1018       N  0.43568930  0.35915293  0.60410904     0.74700
O1019       O  0.50925092  0.28575423  0.01502487    -0.38750
O1020       O  0.52798025  0.28370939  0.56481613    -0.38700
O1021       O  0.40394537  0.34229355  0.61711999    -0.39400
O1022       O  0.45781318  0.39218040  0.61236225    -0.39470
C1023       C  0.44171080  0.11840406  0.54943643    -0.11750
C1024       C  0.47447404  0.11762843  0.55454718     0.05260
C1025       C  0.50109289  0.14271217  0.57696744    -0.07040
C1026       C  0.49397242  0.16734016  0.59424917    -0.07780
C1027       C  0.46134145  0.16825999  0.58918144    -0.02330
C1028       C  0.43476890  0.14358791  0.56632563     0.04480
N1029       N  0.40045834  0.14288650  0.56066117     0.66990
H1030       H  0.42109345  0.09870416  0.53256395     0.15890
H1031       H  0.51459068  0.18667920  0.61134407     0.15600
N1032       N  0.53492713  0.14300482  0.58327551     0.74700
O1033       O  0.38389817  0.13173350  0.53332732    -0.38750
O1034       O  0.38478919  0.15003463  0.58377238    -0.38700
O1035       O  0.55609629  0.14660346  0.55958129    -0.39400
O1036       O  0.54696977  0.14697873  0.61250396    -0.39470
C1037       C  0.43849222  0.19880630  0.74962475    -0.11750
C1038       C  0.46559607  0.23087288  0.76551233     0.05260
C1039       C  0.49023310  0.26188448  0.74627654    -0.07040
C1040       C  0.48697400  0.25989914  0.71168449    -0.07780
C1041       C  0.45984956  0.22783184  0.69572614    -0.02330
C1042       C  0.43481070  0.19703489  0.71506144     0.04480
N1043       N  0.40463080  0.16455169  0.70031593     0.66990
H1044       H  0.41902114  0.17542054  0.76443872     0.15890
H1045       H  0.50661532  0.28328678  0.69698822     0.15600
N1046       N  0.51931395  0.29503229  0.76118436     0.74700
O1047       O  0.39302951  0.13326304  0.71349962    -0.38750
O1048       O  0.38651982  0.16748911  0.67671328    -0.38700
O1049       O  0.53709897  0.29321523  0.78563321    -0.39400
O1050       O  0.52985884  0.32605945  0.74785832    -0.39470
C1051       C  0.49361640  0.34106172  0.91182091    -0.11750
C1052       C  0.46694200  0.35124052  0.90512007     0.05260
C1053       C  0.43857853  0.32986091  0.88202016    -0.07040
C1054       C  0.43792707  0.29984615  0.86619966    -0.07780
C1055       C  0.46510039  0.29050324  0.87243253    -0.02330
C1056       C  0.49339137  0.31145507  0.89552782     0.04480
N1057       N  0.52288695  0.30411590  0.90181029     0.66990
H1058       H  0.51572035  0.35694971  0.92919403     0.15890
H1059       H  0.41606807  0.28379610  0.84862441     0.15600
N1060       N  0.41026435  0.33810807  0.87399138     0.74700
O1061       O  0.53857818  0.29781919  0.87814029    -0.38750
O1062       O  0.53625530  0.30827235  0.93053818    -0.38700
O1063       O  0.41722069  0.36391799  0.85391412    -0.39400
O1064       O  0.37707004  0.31524135  0.88132256    -0.39470
C1065       C  0.45563402  0.10936445  0.87876059    -0.11750
C1066       C  0.47800584  0.11866153  0.90717659     0.05260
C1067       C  0.49527357  0.15548111  0.91875790    -0.07040
C1068       C  0.49079731  0.18192598  0.90141904    -0.07780
C1069       C  0.46849994  0.17258703  0.87298364    -0.02330
C1070       C  0.44987972  0.13539716  0.86210594     0.04480
N1071       N  0.42377834  0.12307391  0.83528049     0.66990
H1072       H  0.44137967  0.08116458  0.86984714     0.15890
H1073       H  0.50536393  0.21019396  0.91017755     0.15600
N1074       N  0.51642678  0.16641814  0.94863778     0.74700
O1075       O  0.42128197  0.09850781  0.81568476    -0.38750
O1076       O  0.40021583  0.13333682  0.83347202    -0.38700
O1077       O  0.55002264  0.17523203  0.94801273    -0.39400
O1078       O  0.50359182  0.17353353  0.97400187    -0.39470
C1079       C  0.64918197  0.53694299  0.90331468    -0.11750
C1080       C  0.61756085  0.50163541  0.90568073     0.05260
C1081       C  0.61839149  0.47087874  0.89243501    -0.07040
C1082       C  0.65101592  0.47631099  0.87751987    -0.07780
C1083       C  0.68241869  0.51161985  0.87492349    -0.02330
C1084       C  0.68183520  0.54250133  0.88822980     0.04480
N1085       N  0.71354127  0.57939870  0.88650369     0.66990
H1086       H  0.64854401  0.56033109  0.91390791     0.15890
H1087       H  0.65150481  0.45299427  0.86655785     0.15600
N1088       N  0.58602262  0.43457548  0.89207704     0.74700
O1089       O  0.70943472  0.60710513  0.88926849    -0.38750
O1090       O  0.74595628  0.58467637  0.88501428    -0.38700
O1091       O  0.55480481  0.43052896  0.88512189    -0.39400
O1092       O  0.58930794  0.40630630  0.89389547    -0.39470
C1093       C  0.79149642  0.48155636  0.89026150    -0.11750
C1094       C  0.80151914  0.51139527  0.86866882     0.05260
C1095       C  0.83943525  0.53615183  0.86229203    -0.07040
C1096       C  0.86614390  0.53093483  0.87833284    -0.07780
C1097       C  0.85630336  0.50171270  0.90085115    -0.02330
C1098       C  0.81817109  0.47594708  0.90585930     0.04480
N1099       N  0.80577999  0.44328607  0.92559011     0.66990
H1100       H  0.76247700  0.46162683  0.89422197     0.15890
H1101       H  0.89501895  0.55094533  0.87392450     0.15600
N1102       N  0.85151374  0.56749451  0.84070555     0.74700
O1103       O  0.77983296  0.43403714  0.94612315    -0.38750
O1104       O  0.81533726  0.42014118  0.91787736    -0.38700
O1105       O  0.83701530  0.58750491  0.84249381    -0.39400
O1106       O  0.87932250  0.57751979  0.82225177    -0.39470
C1107       C  0.64984972  0.51597119  0.54149313    -0.11750
C1108       C  0.61474418  0.49534999  0.55583206     0.05260
C1109       C  0.61076770  0.47847358  0.58704357    -0.07040
C1110       C  0.64252941  0.48311576  0.60321041    -0.07780
C1111       C  0.67800634  0.50455089  0.58933972    -0.02330
C1112       C  0.68165703  0.52144273  0.55805815     0.04480
N1113       N  0.71726191  0.54575680  0.54356150     0.66990
H1114       H  0.65264910  0.52936507  0.51782052     0.15890
H1115       H  0.63950986  0.46952307  0.62678256     0.15600
N1116       N  0.57514020  0.45686282  0.60273988     0.74700
O1117       O  0.72145625  0.54633299  0.01258847    -0.38750
O1118       O  0.74308745  0.57007533  0.56097823    -0.38700
O1119       O  0.54601972  0.43959436  0.58575049    -0.39400
O1120       O  0.57291833  0.45281341  0.63378106    -0.39470
C1121       C  0.75812412  0.55548776  0.71291044    -0.11750
C1122       C  0.74355209  0.52166623  0.69624084     0.05260
C1123       C  0.72733406  0.48807461  0.71450939    -0.07040
C1124       C  0.72750582  0.48992263  0.74916335    -0.07780
C1125       C  0.74244853  0.52364264  0.76584181    -0.02330
C1126       C  0.75748644  0.55708177  0.74767823     0.04480
N1127       N  0.77231654  0.59252532  0.76371665     0.66990
H1128       H  0.76966568  0.58076258  0.69853908     0.15890
H1129       H  0.71615610  0.46471132  0.76362208     0.15600
N1130       N  0.71044716  0.45205067  0.69894307     0.74700
O1131       O  0.79402484  0.62181768  0.74825405    -0.38750
O1132       O  0.76157275  0.59521026  0.79220172    -0.38700
O1133       O  0.71442125  0.44837248  0.66851635    -0.39400
O1134       O  0.69159577  0.42317530  0.71599339    -0.39470
C1135       C  0.80643318  0.51766494  0.55786229    -0.11750
C1136       C  0.80064609  0.50893182  0.59190147     0.05260
C1137       C  0.82421720  0.49846976  0.60801898    -0.07040
C1138       C  0.85328200  0.49892025  0.59039668    -0.07780
C1139       C  0.85803485  0.50674350  0.55652031    -0.02330
C1140       C  0.83407971  0.51579164  0.53985133     0.04480
N1141       N  0.83778227  0.52390513  0.00496323     0.66990
H1142       H  0.78994903  0.52697999  0.54501782     0.15890
H1143       H  0.87116642  0.49101816  0.60288219     0.15600
N1144       N  0.81802686  0.48510699  0.64146219     0.74700
O1145       O  0.80944954  0.51514932  0.98763576    -0.38750
O1146       O  0.86933642  0.54246387  0.99184519    -0.38700
O1147       O  0.78657802  0.45914895  0.65010457    -0.39400
O1148       O  0.84503352  0.49540147  0.66095544    -0.39470
C1149       C  0.68995772  0.15804017  0.56304628    -0.11750
C1150       C  0.68428990  0.17382125  0.59142533     0.05260
C1151       C  0.64781141  0.15994613  0.60334795    -0.07040
C1152       C  0.61828773  0.12993067  0.58721628    -0.07780
C1153       C  0.62402560  0.11456191  0.55873769    -0.02330
C1154       C  0.66030797  0.12850790  0.54653528     0.04480
N1155       N  0.66764910  0.11286339  0.51790896     0.66990
H1156       H  0.71788564  0.16817622  0.55420627     0.15890
H1157       H  0.59039832  0.11906276  0.59638174     0.15600
N1158       N  0.64006937  0.17687005  0.63072320     0.74700
O1159       O  0.69295595  0.13491518  0.99772901    -0.38750
O1160       O  0.64952531  0.07846157  0.51299808    -0.38700
O1161       O  0.65636323  0.21161888  0.63311563    -0.39400
O1162       O  0.61401192  0.15733359  0.65047041    -0.39470
C1163       C  0.79542779  0.32196508  0.57901552    -0.11750
C1164       C  0.80323005  0.29449148  0.58861480     0.05260
C1165       C  0.83848128  0.29915033  0.58217507    -0.07040
C1166       C  0.86517031  0.33160031  0.56638101    -0.07780
C1167       C  0.85764614  0.35943345  0.55686591    -0.02330
C1168       C  0.82236094  0.35469905  0.56375156     0.04480
N1169       N  0.81412489  0.38351920  0.55747303     0.66990
H1170       H  0.76861924  0.31856032  0.58483669     0.15890
H1171       H  0.89191334  0.33477202  0.56076142     0.15600
N1172       N  0.84757475  0.27134789  0.59106928     0.74700
O1173       O  0.78213748  0.37546573  0.54817601    -0.38750
O1174       O  0.83653572  0.41616804  0.56652057    -0.38700
O1175       O  0.82316151  0.23750411  0.59089250    -0.39400
O1176       O  0.88080810  0.28029154  0.59620608    -0.39470
C1177       C  0.68587561  0.14562452  0.88346931    -0.11750
C1178       C  0.68326993  0.17592004  0.87245753     0.05260
C1179       C  0.65063785  0.17714669  0.87857888    -0.07040
C1180       C  0.62166484  0.14792774  0.89616577    -0.07780
C1181       C  0.62426674  0.11762190  0.90744964    -0.02330
C1182       C  0.65692670  0.11647758  0.90108038     0.04480
N1183       N  0.66181966  0.08689568  0.91311287     0.66990
H1184       H  0.71106194  0.14506842  0.87876363     0.15890
H1185       H  0.59654684  0.14861383  0.90086327     0.15600
N1186       N  0.64585578  0.20693588  0.86663731     0.74700
O1187       O  0.68138221  0.07724226  0.89704214    -0.38750
O1188       O  0.65091192  0.07375135  0.94171352    -0.38700
O1189       O  0.61378348  0.20149629  0.86126414    -0.39400
O1190       O  0.67308295  0.23927208  0.86350542    -0.39470
C1191       C  0.72907594  0.24114078  0.71195186    -0.11750
C1192       C  0.75216079  0.23071535  0.69616940     0.05260
C1193       C  0.77373928  0.22018423  0.71534618    -0.07040
C1194       C  0.77086461  0.22015884  0.75010974    -0.07780
C1195       C  0.74736829  0.23022807  0.76575482    -0.02330
C1196       C  0.72630874  0.24108543  0.74645881     0.04480
N1197       N  0.70278904  0.25301082  0.76119276     0.66990
H1198       H  0.71265929  0.24907772  0.69706364     0.15890
H1199       H  0.78726074  0.21250013  0.76530485     0.15600
N1200       N  0.79804676  0.20910420  0.70050970     0.74700
O1201       O  0.69874756  0.27770310  0.74722332    -0.38750
O1202       O  0.68255992  0.23606984  0.78567847    -0.38700
O1203       O  0.80845801  0.21681404  0.67080749    -0.39400
O1204       O  0.81076088  0.19285890  0.71770333    -0.39470
C1205       C  0.81333448  0.29376123  0.90231911    -0.11750
C1206       C  0.80031021  0.29869534  0.87174157     0.05260
C1207       C  0.81531527  0.33503557  0.85892600    -0.07040
C1208       C  0.84434282  0.36474381  0.87586163    -0.07780
C1209       C  0.85742897  0.35947808  0.90605552    -0.02330
C1210       C  0.84126725  0.32367653  0.91994432     0.04480
N1211       N  0.85258102  0.31701256  0.95166629     0.66990
H1212       H  0.80227091  0.26616068  0.91229573     0.15890
H1213       H  0.85600090  0.39249610  0.86600787     0.15600
N1214       N  0.80040845  0.34260551  0.82985949     0.74700
O1215       O  0.82982013  0.29041987  0.96950223    -0.38750
O1216       O  0.88578110  0.33574130  0.96103144    -0.38700
O1217       O  0.76584600  0.32688725  0.82576348    -0.39400
O1218       O  0.82142211  0.36840633  0.81046327    -0.39470
C1219       C  0.30867228  0.45766236  0.92160146    -0.11750
C1220       C  0.34408477  0.47841540  0.90778746     0.05260
C1221       C  0.34869429  0.49630446  0.87703765    -0.07040
C1222       C  0.31756590  0.49356040  0.86134016    -0.07780
C1223       C  0.28171730  0.47213323  0.87455083    -0.02330
C1224       C  0.27725671  0.45360804  0.90511789     0.04480
N1225       N  0.24134780  0.42954523  0.91914453     0.66990
H1226       H  0.30538053  0.44353635  0.94494615     0.15890
H1227       H  0.32142340  0.50831127  0.83829779     0.15600
N1228       N  0.38440897  0.51726453  0.86133942     0.74700
O1229       O  0.21494915  0.40730117  0.90095934    -0.38750
O1230       O  0.23705315  0.42731719  0.95015565    -0.38700
O1231       O  0.40824473  0.50746323  0.86402850    -0.39400
O1232       O  0.39065054  0.54308611  0.84149013    -0.39470
C1233       C  0.14646057  0.51156113  0.91330344    -0.11750
C1234       C  0.11016812  0.49199670  0.90075911     0.05260
C1235       C  0.10382431  0.47150343  0.87126048    -0.07040
C1236       C  0.13252380  0.46781332  0.85752028    -0.07780
C1237       C  0.16846007  0.48617157  0.87089118    -0.02330
C1238       C  0.17546215  0.50886452  0.89892282     0.04480
N1239       N  0.21181222  0.53001342  0.91278951     0.66990
H1240       H  0.15270604  0.52964702  0.93434868     0.15890
H1241       H  0.12676759  0.45093578  0.83561763     0.15600
N1242       N  0.06954186  0.45669010  0.85351906     0.74700
O1243       O  0.23893607  0.55124639  0.89471184    -0.38750
O1244       O  0.21655052  0.52899082  0.94352975    -0.38700
O1245       O  0.05668199  0.47741863  0.84668477    -0.39400
O1246       O  0.05630562  0.42590349  0.83910302    -0.39470
C1247       C  0.19107147  0.45262987  0.75013278    -0.11750
C1248       C  0.22485837  0.47471979  0.76629190     0.05260
C1249       C  0.25744536  0.49472252  0.74720262    -0.07040
C1250       C  0.25511724  0.49250243  0.71254498    -0.07780
C1251       C  0.22120461  0.47040228  0.69629358    -0.02330
C1252       C  0.18895557  0.44962031  0.71563596     0.04480
N1253       N  0.15437462  0.42340862  0.70094737     0.66990
H1254       H  0.16621298  0.43622905  0.76462095     0.15890
H1255       H  0.27998714  0.50912517  0.69818755     0.15600
N1256       N  0.29283536  0.51816770  0.76230074     0.74700
O1257       O  0.15285491  0.39864577  0.68222487    -0.38750
O1258       O  0.12467877  0.42079555  0.71121583    -0.38700
O1259       O  0.32157127  0.52006714  0.75029409    -0.39400
O1260       O  0.29606434  0.53964742  0.78554969    -0.39470
C1261       C  0.29640737  0.45070482  0.60015021    -0.11750
C1262       C  0.27909307  0.46947869  0.58768957     0.05260
C1263       C  0.29380192  0.49132243  0.55870558    -0.07040
C1264       C  0.32453835  0.49309873  0.54294573    -0.07780
C1265       C  0.34267378  0.47551417  0.55626040    -0.02330
C1266       C  0.32864531  0.45468593  0.58577365     0.04480
N1267       N  0.34818897  0.43981806  0.60301058     0.66990
H1268       H  0.28571154  0.43387302  0.62222375     0.15890
H1269       H  0.33506699  0.50948149  0.52059183     0.15600
N1270       N  0.27945105  0.51352669  0.54585357     0.74700
O1271       O  0.38121712  0.46117930  0.61185083    -0.38750
O1272       O  0.33066475  0.40767442  0.61514093    -0.38700
O1273       O  0.27591044  0.53557763  0.56460777    -0.39400
O1274       O  0.27545923  0.51512788  0.01504018    -0.39470
C1275       C  0.09747210  0.46064578  0.58352964    -0.11750
C1276       C  0.10681984  0.48111883  0.55394784     0.05260
C1277       C  0.14307066  0.49596686  0.54147339    -0.07040
C1278       C  0.16956140  0.49245709  0.55976139    -0.07780
C1279       C  0.16008192  0.47144057  0.58905064    -0.02330
C1280       C  0.12304809  0.45434944  0.60034402     0.04480
N1281       N  0.11012270  0.42818999  0.62703582     0.66990
H1282       H  0.06947770  0.44793875  0.59299844     0.15890
H1283       H  0.19751462  0.50519482  0.55022855     0.15600
N1284       N  0.15219729  0.51076491  0.00871247     0.74700
O1285       O  0.08680090  0.42722724  0.64739967    -0.38750
O1286       O  0.11642496  0.40178639  0.62647638    -0.38700
O1287       O  0.18279336  0.53964266  0.00302123    -0.39400
O1288       O  0.13329779  0.49082435  0.98484760    -0.39470
C1289       C  0.12201232  0.66779146  0.54113094    -0.11750
C1290       C  0.10873354  0.63266032  0.55494398     0.05260
C1291       C  0.12201264  0.62896090  0.58598064    -0.07040
C1292       C  0.14869856  0.66086785  0.60230049    -0.07780
C1293       C  0.16199786  0.69633225  0.58877740    -0.02330
C1294       C  0.14797682  0.69975840  0.55788825     0.04480
N1295       N  0.15804799  0.73522523  0.54410414     0.66990
H1296       H  0.11089160  0.67039330  0.51771031     0.15890
H1297       H  0.15979910  0.65787528  0.62555277     0.15600
N1298       N  0.10879044  0.59339872  0.60136635     0.74700
O1299       O  0.16139463  0.74017827  0.01318054    -0.38750
O1300       O  0.15837150  0.75986747  0.56220136    -0.38700
O1301       O  0.09970023  0.56501541  0.58412628    -0.39400
O1302       O  0.10897992  0.59075901  0.63248687    -0.39470
C1303       C  0.32036010  0.82272321  0.60166683    -0.11750
C1304       C  0.28517193  0.81425029  0.59057687     0.05260
C1305       C  0.28222027  0.83366508  0.56323985    -0.07040
C1306       C  0.31436479  0.85943247  0.54657826    -0.07780
C1307       C  0.34945080  0.86784463  0.55764580    -0.02330
C1308       C  0.35287871  0.85012967  0.58628293     0.04480
N1309       N  0.38829232  0.85997838  0.60084258     0.66990
H1310       H  0.32235434  0.80788417  0.62278889     0.15890
H1311       H  0.31213344  0.87428461  0.52554121     0.15600
N1312       N  0.24727065  0.82938801  0.55349394     0.74700
O1313       O  0.38968655  0.84591011  0.62808491    -0.38750
O1314       O  0.41837255  0.88296937  0.58724178    -0.38700
O1315       O  0.22520880  0.82857802  0.57520067    -0.39400
O1316       O  0.24095482  0.83234281  0.52343056    -0.39470
C1317       C  0.13565613  0.69725607  0.88427226    -0.11750
C1318       C  0.16706573  0.69603107  0.87442310     0.05260
C1319       C  0.16935574  0.66402606  0.88087545    -0.07040
C1320       C  0.13989047  0.63417592  0.89742825    -0.07780
C1321       C  0.10822233  0.63520162  0.90707742    -0.02330
C1322       C  0.10612254  0.66712723  0.90017742     0.04480
N1323       N  0.07467423  0.66981693  0.90970369     0.66990
H1324       H  0.13382354  0.72165127  0.87904525     0.15890
H1325       H  0.14147962  0.60963738  0.90255250     0.15600
N1326       N  0.20048622  0.66074727  0.87028245     0.74700
O1327       O  0.07848315  0.69361735  0.93081099    -0.38750
O1328       O  0.04593187  0.65475616  0.89202042    -0.38700
O1329       O  0.23243454  0.68877586  0.86790239    -0.39400
O1330       O  0.19661644  0.62923349  0.86550204    -0.39470
C1331       C  0.22793502  0.79056109  0.71345706    -0.11750
C1332       C  0.21853183  0.75783063  0.69639753     0.05260
C1333       C  0.20885697  0.72534304  0.71467559    -0.07040
C1334       C  0.20861638  0.72645459  0.74929765    -0.07780
C1335       C  0.21840202  0.75924322  0.76643067    -0.02330
C1336       C  0.22774055  0.79169642  0.74817015     0.04480
N1337       N  0.23605025  0.82561839  0.76421651     0.66990
H1338       H  0.23460446  0.81530020  0.69956460     0.15890
H1339       H  0.20242648  0.70174730  0.76301826     0.15600
N1340       N  0.20101917  0.69152041  0.69875287     0.74700
O1341       O  0.25954533  0.85628081  0.75175170    -0.38750
O1342       O  0.21730617  0.82523741  0.78882436    -0.38700
O1343       O  0.22183759  0.69183748  0.67601888    -0.39400
O1344       O  0.17606508  0.66088357  0.71009900    -0.39470
C1345       C  0.28640875  0.84351672  0.88450912    -0.11750
C1346       C  0.28797804  0.81335894  0.87164560     0.05260
C1347       C  0.31931615  0.80983268  0.87774035    -0.07040
C1348       C  0.34861518  0.83723330  0.89637938    -0.07780
C1349       C  0.34737444  0.86782484  0.90880310    -0.02330
C1350       C  0.31548381  0.87059682  0.90346233     0.04480
N1351       N  0.31135577  0.89945018  0.91837582     0.66990
H1352       H  0.26172587  0.84525162  0.88061879     0.15890
H1353       H  0.37315349  0.83529205  0.90041400     0.15600
N1354       N  0.32194127  0.77893954  0.86551270     0.74700
O1355       O  0.29254650  0.91127586  0.90407528    -0.38750
O1356       O  0.32197850  0.90948516  0.94772234    -0.38700
O1357       O  0.30671604  0.76331878  0.83868052    -0.39400
O1358       O  0.34214279  0.76903287  0.88018032    -0.39470
C1359       C  0.47507659  0.67323156  0.89711403    -0.11750
C1360       C  0.50238588  0.69046254  0.87265672     0.05260
C1361       C  0.52552727  0.67590271  0.86529163    -0.07040
C1362       C  0.52009731  0.64414278  0.88196394    -0.07780
C1363       C  0.49267155  0.62664499  0.90649687    -0.02330
C1364       C  0.46980098  0.64164437  0.91389483     0.04480
N1365       N  0.44069233  0.62514645  0.93788895     0.66990
H1366       H  0.45679159  0.68377982  0.90261655     0.15890
H1367       H  0.53833039  0.63365860  0.87611506     0.15600
N1368       N  0.55548371  0.69361879  0.84198065     0.74700
O1369       O  0.44027377  0.64423250  0.96180692    -0.38750
O1370       O  0.41196545  0.59469662  0.93152008    -0.38700
O1371       O  0.57594489  0.72834144  0.84175565    -0.39400
O1372       O  0.56414539  0.67446511  0.82413870    -0.39470
C1373       C  0.47491192  0.80090930  0.89506036    -0.11750
C1374       C  0.50432570  0.81081354  0.87311349     0.05260
C1375       C  0.53088210  0.84856223  0.86857795    -0.07040
C1376       C  0.52666150  0.87540749  0.88551206    -0.07780
C1377       C  0.49727086  0.86565967  0.90784857    -0.02330
C1378       C  0.47134315  0.82761291  0.91268416     0.04480
N1379       N  0.44192879  0.81523798  0.93617491     0.66990
H1380       H  0.45453979  0.77198038  0.89875921     0.15890
H1381       H  0.54724357  0.90420390  0.88170304     0.15600
N1382       N  0.56287367  0.86007031  0.84794113     0.74700
O1383       O  0.40887371  0.79544034  0.92671621    -0.38750
O1384       O  0.44930062  0.81668937  0.96657597    -0.38700
O1385       O  0.57659424  0.89018625  0.83218358    -0.39400
O1386       O  0.58007680  0.84255931  0.84847557    -0.39470
C1387       C  0.51556232  0.69237747  0.55790858    -0.11750
C1388       C  0.50079849  0.68765865  0.59009806     0.05260
C1389       C  0.48328975  0.65170851  0.60432435    -0.07040
C1390       C  0.48280530  0.62258033  0.58702415    -0.07780
C1391       C  0.49707448  0.62745281  0.55499409    -0.02330
C1392       C  0.51324566  0.66263947  0.53980428     0.04480
N1393       N  0.52737708  0.66886151  0.00639313     0.66990
H1394       H  0.52964481  0.71962440  0.54682346     0.15890
H1395       H  0.46947395  0.59525837  0.59809497     0.15600
N1396       N  0.46385516  0.64349010  0.63525635     0.74700
O1397       O  0.52978813  0.69544138  0.98962098    -0.38750
O1398       O  0.53913012  0.64914936  0.99391604    -0.38700
O1399       O  0.43993182  0.65285313  0.63993021    -0.39400
O1400       O  0.46662219  0.62237503  0.65590712    -0.39470
C1401       C  0.52812691  0.86933136  0.56615895    -0.11750
C1402       C  0.49305689  0.86249731  0.55608671     0.05260
C1403       C  0.46163586  0.82724813  0.56290384    -0.07040
C1404       C  0.46643106  0.80073841  0.57985003    -0.07780
C1405       C  0.50135201  0.80791666  0.59003435    -0.02330
C1406       C  0.53296435  0.84268054  0.58298158     0.04480
N1407       N  0.56999663  0.85148153  0.59185237     0.66990
H1408       H  0.55222506  0.89597955  0.56082931     0.15890
H1409       H  0.44243955  0.77400044  0.58528244     0.15600
N1410       N  0.42453459  0.81793961  0.55461295     0.74700
O1411       O  0.59761877  0.87776446  0.57758716    -0.38750
O1412       O  0.57571218  0.83458883  0.61485223    -0.38700
O1413       O  0.41556322  0.81713725  0.02472574    -0.39400
O1414       O  0.39908536  0.80082261  0.57556561    -0.39470
C1415       C  0.54085523  0.76332247  0.71358177    -0.11750
C1416       C  0.50770288  0.75182234  0.69646535     0.05260
C1417       C  0.47470069  0.74139956  0.71426037    -0.07040
C1418       C  0.47613121  0.74311421  0.74893306    -0.07780
C1419       C  0.50923026  0.75456168  0.76604093    -0.02330
C1420       C  0.54227592  0.76523733  0.74830705     0.04480
N1421       N  0.57729177  0.77850506  0.76482021     0.66990
H1422       H  0.56595670  0.77172539  0.69960005     0.15890
H1423       H  0.45101915  0.73467292  0.76291935     0.15600
N1424       N  0.43965128  0.72864239  0.69790343     0.74700
O1425       O  0.60343349  0.77742082  0.75034959    -0.38750
O1426       O  0.58359635  0.79458437  0.79243020    -0.38700
O1427       O  0.43300418  0.71284881  0.67013733    -0.39400
O1428       O  0.41383131  0.73012633  0.71258475    -0.39470
loop_ 
_geom_bond_atom_site_label_1 
_geom_bond_atom_site_label_2 
_geom_bond_distance 
_geom_bond_site_symmetry_2 
_ccdc_geom_bond_type 
C1            C2   1.410       .  A
C1            C6   1.412       .  A
C1          C674   1.501       .  S
C2            C3   1.401       .  A
C2            H7   1.082       .  S
C3            C4   1.398       .  A
C3          C702   1.474       .  S
C4            C5   1.399       .  A
C4            H8   1.084       .  S
C5            C6   1.404       .  A
C5          C691   1.476       .  S
C6            H9   1.083       .  S
C10          C11   1.406       .  A
C10          C15   1.405       .  A
C10         C646   1.487       .  S
C11          C12   1.401       .  A
C11          H16   1.084       .  S
C12          C13   1.400       .  A
C12         C705   1.473       .  S
C13          C14   1.402       .  A
C13          H17   1.084       .  S
C14          C15   1.404       .  A
C14         C660   1.481       .  S
C15          H18   1.084       .  S
C19          C20   1.402       .  A
C19          C24   1.399       .  A
C19         C632   1.472       .  S
C20          C21   1.406       .  A
C20          H25   1.084       .  S
C21          C22   1.406       .  A
C21         C621   1.487       .  S
C22          C23   1.400       .  A
C22          H26   1.084       .  S
C23          C24   1.399       .  A
C23         C604   1.472       .  S
C24          H27   1.084       .  S
C28          C29   1.403       .  A
C28          C33   1.405       .  A
C28         C590   1.484       .  S
C29          C30   1.402       .  A
C29          H34   1.084       .  S
C30          C31   1.403       .  A
C30         C618   1.486       .  S
C31          C32   1.406       .  A
C31          H35   1.084       .  S
C32          C33   1.406       .  A
C32         C579   1.490       .  S
C33          H36   1.083       .  S
C37          C38   1.408       .  A
C37          C42   1.407       .  A
C37         C565   1.494       .  S
C38          C39   1.405       .  A
C38          H43   1.083       .  S
C39          C40   1.407       .  A
C39         C548   1.496       .  S
C40          C41   1.404       .  A
C40          H44   1.082       .  S
C41          C42   1.406       .  A
C41         C537   1.494       .  S
C42          H45   1.083       .  S
C46          C47   1.410       .  A
C46          C51   1.404       .  A
C46         C523   1.493       .  S
C47          C48   1.409       .  A
C47          H52   1.081       .  S
C48          C49   1.407       .  A
C48         C509   1.494       .  S
C49          C50   1.401       .  A
C49          H53   1.084       .  S
C50          C51   1.399       .  A
C50         C534   1.484       .  S
C51          H54   1.084       .  S
C55          C56   1.407       .  A
C55          C60   1.408       .  A
C55         C492   1.493       .  S
C56          C57   1.402       .  A
C56          H61   1.084       .  S
C57          C58   1.399       .  A
C57         C464   1.474       .  S
C58          C59   1.401       .  A
C58          H62   1.084       .  S
C59          C60   1.402       .  A
C59         C481   1.476       .  S
C60          H63   1.083       .  S
C64          C65   1.401       .  A
C64          C69   1.401       .  A
C64         C450   1.473       .  S
C65          C66   1.401       .  A
C65          H70   1.084       .  S
C66          C67   1.402       .  A
C66         C478   1.476       .  S
C67          C68   1.406       .  A
C67          H71   1.084       .  S
C68          C69   1.405       .  A
C68         C436   1.486       .  S
C69          H72   1.084       .  S
C73          C74   1.407       .  A
C73          C78   1.402       .  A
C73         C397   1.489       .  S
C74          C75   1.413       .  A
C74          H79   1.082       .  S
C75          C76   1.411       .  A
C75         C422   1.505       .  S
C76          C77   1.401       .  A
C76          H80   1.081       .  S
C77          C78   1.396       .  A
C77         C408   1.474       .  S
C78          H81   1.084       .  S
C82          C83   1.401       .  A
C82          C87   1.402       .  A
C82         C369   1.474       .  S
C83          C84   1.400       .  A
C83          H88   1.084       .  S
C84          C85   1.401       .  A
C84         C411   1.474       .  S
C85          C86   1.405       .  A
C85          H89   1.084       .  S
C86          C87   1.406       .  A
C86         C380   1.485       .  S
C87          H90   1.084       .  S
C91          C92   1.407       .  A
C91          C96   1.406       .  A
C91         C355   1.492       .  S
C92          C93   1.404       .  A
C92          H97   1.083       .  S
C93          C94   1.403       .  A
C93         C341   1.482       .  S
C94          C95   1.403       .  A
C94          H98   1.084       .  S
C95          C96   1.402       .  A
C95         C324   1.483       .  S
C96          H99   1.083       .  S
C100        C101   1.402       .  A
C100        C105   1.403       .  A
C100        C313   1.478       .  S
C101        C102   1.402       .  A
C101        H106   1.084       .  S
C102        C103   1.402       .  A
C102        C327   1.487       .  S
C103        C104   1.408       .  A
C103        H107   1.083       .  S
C104        C105   1.407       .  A
C104        C299   1.494       .  S
C105        H108   1.083       .  S
O109       Zr121   2.442       .  S
O109        C111   1.287       .  A
O110       Zr861   2.425   1_554  S
O110        C111   1.286       .  A
C111        C677   1.469       .  S
O112       Zr124   2.439       .  S
O112        C114   1.288       .  A
O113       Zr148   2.426       .  S
O113        C114   1.287       .  A
C114        C366   1.478       .  S
O115       Zr124   2.441       .  S
O115        C117   1.289       .  A
O116       Zr147   2.423       .  S
O116        C117   1.285       .  A
C117        C649   1.496       .  S
O118       Zr121   2.447       .  S
O118        C120   1.289       .  A
O119       Zr862   2.417   1_554  S
O119        C120   1.284       .  A
C120        C394   1.468       .  S
Zr121       O122   2.434       .  S
Zr121       O123   2.435       .  S
Zr121       O151   2.370       .  S
Zr121       O153   2.375       .  S
Zr121       O841   2.373   1_554  S
Zr121       O842   2.369   1_554  S
O122        H165   0.990       .  S
O123        H164   0.990       .  S
O123        H168   0.990       .  S
Zr124       O125   2.435       .  S
Zr124       O126   2.435       .  S
Zr124       O128   2.371       .  S
Zr124       O127   2.370       .  S
Zr124       O152   2.370       .  S
Zr124       O154   2.375       .  S
O125        H166   0.990       .  S
O125        H169   0.990       .  S
O126        H159   0.990       .  S
O127       Zr147   2.381       .  S
O127       Zr835   2.373       .  S
O128       Zr148   2.384       .  S
O128       Zr835   2.369       .  S
O128        H155   0.966       .  S
O129       Zr141   2.436       .  S
O129        C131   1.287       .  A
O130       Zr862   2.425   1_554  S
O130        C131   1.287       .  A
C131        C296   1.488       .  S
O132       Zr144   2.438       .  S
O132        C134   1.287       .  A
O133       Zr147   2.428       .  S
O133        C134   1.287       .  A
C134        C506   1.469       .  S
O135       Zr144   2.444       .  S
O135        C137   1.287       .  A
O136       Zr148   2.421       .  S
O136        C137   1.287       .  A
C137        C338   1.495       .  S
O138       Zr141   2.437       .  S
O138        C140   1.287       .  A
O139       Zr861   2.431   1_554  S
O139        C140   1.289       .  A
C140        C551   1.491       .  S
Zr141       O142   2.435       .  S
Zr141       O143   2.432       .  S
Zr141       O153   2.370       .  S
Zr141       O151   2.369       .  S
Zr141       O863   2.369   1_554  S
Zr141       O864   2.368   1_554  S
O142        H162   0.990       .  S
O142        H167   0.990       .  S
O143        H163   0.990       .  S
Zr144       O145   2.433       .  S
Zr144       O146   2.434       .  S
Zr144       O150   2.373       .  S
Zr144       O149   2.368       .  S
Zr144       O154   2.372       .  S
Zr144       O152   2.369       .  S
O145        H161   0.990       .  S
O146        H160   0.990       .  S
O146        H170   0.990       .  S
Zr147       O824   2.425       .  S
Zr147       O853   2.431       .  S
Zr147       O150   2.380       .  S
Zr147       O152   2.382       .  S
Zr147       O867   2.385       .  S
Zr148       O833   2.417       .  S
Zr148       O844   2.425       .  S
Zr148       O149   2.383       .  S
Zr148       O154   2.380       .  S
Zr148       O865   2.380       .  S
O149       Zr855   2.369       .  S
O149        H157   0.966       .  S
O150       Zr855   2.368       .  S
O151       Zr862   2.380   1_554  S
O152        H156   0.965       .  S
O153       Zr861   2.385   1_554  S
O153        H158   0.966       .  S
O171       Zr183   2.440   1_455  S
O171        C173   1.287       .  A
O172       Zr209   2.421       .  S
O172        C173   1.287       .  A
C173        C607   1.480       .  S
O174       Zr186   2.439       .  S
O174        C176   1.287       .  A
O175       Zr924   2.428   1_554  S
O175        C176   1.287       .  A
C176        C425   1.471       .  S
O177       Zr186   2.443   1_455  S
O177        C179   1.288       .  A
O178       Zr923   2.419   1_554  S
O178        C179   1.285       .  A
C179        C576   1.466       .  S
O180       Zr183   2.443       .  S
O180        C182   1.290       .  A
O181       Zr210   2.418       .  S
O181        C182   1.285       .  A
C182        C383   1.495       .  S
Zr183       O184   2.434       .  S
Zr183       O185   2.436       .  S
Zr183       O189   2.372   1_655  S
Zr183       O190   2.366       .  S
Zr183       O213   2.370       .  S
Zr183       O215   2.371   1_655  S
O184        H227   0.990       .  S
O185        H226   0.990   1_655  S
O185        H230   0.990       .  S
Zr186       O187   2.435       .  S
Zr186       O188   2.435       .  S
Zr186       O214   2.371   1_655  S
Zr186       O216   2.374       .  S
Zr186       O904   2.374   1_554  S
Zr186       O903   2.370   1_654  S
O187        H228   0.990       .  S
O187        H231   0.990       .  S
O188        H221   0.990   1_655  S
O189       Zr209   2.381       .  S
O189       Zr900   2.370   1_455  S
O190       Zr210   2.383       .  S
O190       Zr900   2.374       .  S
O190        H217   0.965       .  S
O191       Zr203   2.446       .  S
O191        C193   1.288       .  A
O192       Zr210   2.424       .  S
O192        C193   1.286       .  A
C193        C495   1.469       .  S
O194       Zr206   2.423   1_455  S
O194        C196   1.285       .  A
O195       Zr923   2.442   1_554  S
O195        C196   1.290       .  A
C196        C562   1.490       .  S
O197       Zr206   2.434       .  S
O197        C199   1.287       .  A
O198       Zr924   2.427   1_554  S
O198        C199   1.287       .  A
C199        C453   1.484       .  S
O200       Zr203   2.455   1_455  S
O200        C202   1.291       .  A
O201       Zr209   2.419       .  S
O201        C202   1.286       .  A
C202        C520   1.494       .  S
Zr203       O204   2.435       .  S
Zr203       O205   2.433       .  S
Zr203       O211   2.374       .  S
Zr203       O212   2.372   1_655  S
Zr203       O215   2.368   1_655  S
Zr203       O213   2.373       .  S
O204        H224   0.990       .  S
O204        H229   0.990       .  S
O205        H225   0.990       .  S
Zr206       O207   2.434       .  S
Zr206       O208   2.434       .  S
Zr206       O216   2.369       .  S
Zr206       O214   2.367   1_655  S
Zr206       O926   2.375   1_654  S
Zr206       O925   2.362   1_554  S
O207        H223   0.990       .  S
O208        H222   0.990       .  S
O208        H232   0.990       .  S
Zr209       O892   2.419       .  S
Zr209       O909   2.442       .  S
Zr209       O212   2.379       .  S
Zr209       O215   2.386       .  S
Zr209       O928   2.382       .  S
Zr210       O889   2.428       .  S
Zr210       O912   2.427       .  S
Zr210       O211   2.382       .  S
Zr210       O213   2.382       .  S
Zr210       O930   2.380       .  S
O211       Zr920   2.362       .  S
O211        H219   0.965       .  S
O212       Zr920   2.375   1_455  S
O214       Zr923   2.382   1_554  S
O214        H218   0.965       .  S
O215        H220   0.966       .  S
O216       Zr924   2.380   1_554  S
O233       Zr245   2.441       .  S
O233        C235   1.289       .  A
O234       Zr271   2.425       .  S
O234        C235   1.286       .  A
C235        C663   1.496       .  S
O236       Zr248   2.443   1_545  S
O236        C238   1.287       .  A
O237       Zr986   2.429   1_554  S
O237        C238   1.287       .  A
C238        C439   1.470       .  S
O239       Zr248   2.457       .  S
O239        C241   1.292       .  A
O240       Zr985   2.414   1_554  S
O240        C241   1.282       .  A
C241        C688   1.491       .  S
O242       Zr245   2.446   1_545  S
O242        C244   1.289       .  A
O243       Zr272   2.420       .  S
O243        C244   1.286       .  A
C244        C467   1.479       .  S
Zr245       O246   2.434       .  S
Zr245       O247   2.435       .  S
Zr245       O251   2.374       .  S
Zr245       O252   2.370   1_565  S
Zr245       O275   2.371   1_565  S
Zr245       O277   2.374       .  S
O246        H289   0.990       .  S
O247        H288   0.990       .  S
O247        H292   0.990       .  S
Zr248       O249   2.435       .  S
Zr248       O250   2.435       .  S
Zr248       O276   2.364       .  S
Zr248       O278   2.381   1_565  S
Zr248       O966   2.375   1_564  S
Zr248       O965   2.370   1_554  S
O249        H290   0.990   1_565  S
O249        H293   0.990   1_565  S
O250        H283   0.990       .  S
O251       Zr271   2.380       .  S
O251       Zr962   2.370       .  S
O252       Zr272   2.386       .  S
O252       Zr962   2.375   1_545  S
O252        H279   0.965       .  S
O253       Zr265   2.435   1_545  S
O253        C255   1.288       .  A
O254       Zr272   2.429       .  S
O254        C255   1.287       .  A
C255        C352   1.491       .  S
O256       Zr268   2.435       .  S
O256        C258   1.286       .  A
O257       Zr985   2.426   1_554  S
O257        C258   1.286       .  A
C258        C593   1.466       .  S
O259       Zr268   2.441   1_545  S
O259        C261   1.287       .  A
O260       Zr986   2.428   1_554  S
O260        C261   1.286       .  A
C261        C310   1.474       .  S
O262       Zr265   2.440       .  S
O262        C264   1.288       .  A
O263       Zr271   2.417       .  S
O263        C264   1.285       .  A
C264        C635   1.476       .  S
Zr265       O266   2.436       .  S
Zr265       O267   2.434       .  S
Zr265       O273   2.368   1_565  S
Zr265       O274   2.370       .  S
Zr265       O277   2.367       .  S
Zr265       O275   2.373   1_565  S
O266        H286   0.990   1_565  S
O266        H291   0.990   1_565  S
O267        H287   0.990   1_565  S
Zr268       O269   2.434       .  S
Zr268       O270   2.434       .  S
Zr268       O278   2.372   1_565  S
Zr268       O276   2.369       .  S
Zr268       O988   2.374   1_554  S
Zr268       O987   2.366   1_564  S
O269        H285   0.990       .  S
O270        H284   0.990   1_565  S
O270        H294   0.990       .  S
Zr271       O954   2.414       .  S
Zr271       O971   2.426       .  S
Zr271       O274   2.379       .  S
Zr271       O277   2.382       .  S
Zr271       O990   2.381       .  S
Zr272       O951   2.430       .  S
Zr272       O974   2.428       .  S
Zr272       O273   2.382       .  S
Zr272       O275   2.382       .  S
Zr272       O992   2.383       .  S
O273       Zr982   2.365   1_545  S
O273        H281   0.966       .  S
O274       Zr982   2.374       .  S
O276       Zr985   2.381   1_554  S
O276        H280   0.964       .  S
O277        H282   0.966       .  S
O278       Zr986   2.383   1_554  S
C295        C296   1.406       .  A
C295        C300   1.404       .  A
C295        H302   1.083       .  S
C296        C297   1.416       .  A
C297        C298   1.399       .  A
C297        N304   1.435       .  S
C298        C299   1.405       .  A
C298        H303   1.083       .  S
C299        C300   1.420       .  A
C300        N301   1.437       .  S
N301        O306   1.263       .  A
N301       O1019   1.263       .  A
N304        O307   1.262       .  A
N304        O308   1.262       .  A
O305       N1015   1.263       .  A
C309        C310   1.404       .  A
C309        C314   1.407       .  A
C309        H316   1.084       .  S
C310        C311   1.411       .  A
C311        C312   1.400       .  A
C311        N318   1.434       .  S
C312        C313   1.402       .  A
C312        H317   1.084       .  S
C313        C314   1.415       .  A
C314        N315   1.441       .  S
N315        O319   1.263       .  A
N315        O320   1.263       .  A
N318        O321   1.261       .  A
N318        O322   1.262       .  A
C323        C324   1.404       .  A
C323        C328   1.403       .  A
C323        H330   1.084       .  S
C324        C325   1.414       .  A
C325        C326   1.403       .  A
C325        N332   1.439       .  S
C326        C327   1.405       .  A
C326        H331   1.084       .  S
C327        C328   1.416       .  A
C328        N329   1.440       .  S
N329        O333   1.263       .  A
N329        O334   1.263       .  A
N332        O335   1.263       .  A
N332        O336   1.263       .  A
C337        C338   1.409       .  A
C337        C342   1.403       .  A
C337        H344   1.083       .  S
C338        C339   1.419       .  A
C339        C340   1.401       .  A
C339        N346   1.430       .  S
C340        C341   1.401       .  A
C340        H345   1.084       .  S
C341        C342   1.414       .  A
C342        N343   1.439       .  S
N343        O347   1.263       .  A
N343        O348   1.263       .  A
N346        O349   1.262       .  A
N346        O350   1.262       .  A
C351        C352   1.408       .  A
C351        C356   1.402       .  A
C351        H358   1.083       .  S
C352        C353   1.415       .  A
C353        C354   1.401       .  A
C353        N360   1.430       .  S
C354        C355   1.407       .  A
C354        H359   1.084       .  S
C355        C356   1.417       .  A
C356        N357   1.439       .  S
N357        O361   1.263       .  A
N357        O362   1.263       .  A
N360        O363   1.262       .  A
N360        O364   1.262       .  A
C365        C366   1.405       .  A
C365        C370   1.405       .  A
C365        H372   1.084       .  S
C366        C367   1.414       .  A
C367        C368   1.403       .  A
C367        N374   1.439       .  S
C368        C369   1.402       .  A
C368        H373   1.084       .  S
C369        C370   1.415       .  A
C370        N371   1.444       .  S
N371        O375   1.263       .  A
N371        O376   1.262       .  A
N374        O377   1.263       .  A
N374        O378   1.263       .  A
C379        C380   1.403       .  A
C379        C384   1.402       .  A
C379        H386   1.084       .  S
C380        C381   1.414       .  A
C381        C382   1.402       .  A
C381        N388   1.438       .  S
C382        C383   1.409       .  A
C382        H387   1.083       .  S
C383        C384   1.420       .  A
C384        N385   1.435       .  S
N385        O389   1.263       .  A
N385        O390   1.263       .  A
N388        O391   1.262       .  A
N388        O392   1.263       .  A
C393        C394   1.400       .  A
C393        C398   1.403       .  A
C393        H400   1.084       .  S
C394        C395   1.413       .  A
C395        C396   1.405       .  A
C395        N402   1.443       .  S
C396        C397   1.407       .  A
C396        H401   1.083       .  S
C397        C398   1.418       .  A
C398        N399   1.438       .  S
N399        O404   1.263       .  A
N399       O1117   1.263       .  A
N402        O405   1.262       .  A
N402        O406   1.263       .  A
O403       N1113   1.263       .  A
C407        C408   1.403       .  A
C407        C412   1.408       .  A
C407        H414   1.084       .  S
C408        C409   1.421       .  A
C409        C410   1.403       .  A
C409        N416   1.450       .  S
C410        C411   1.399       .  A
C410        H415   1.084       .  S
C411        C412   1.416       .  A
C412        N413   1.445       .  S
N413        O417   1.263       .  A
N413        O418   1.262       .  A
N416        O419   1.261       .  A
N416        O420   1.263       .  A
C421        C422   1.412       .  A
C421        C426   1.404       .  A
C421        H428   1.082       .  S
C422        C423   1.424       .  A
C423        C424   1.403       .  A
C423        N430   1.435       .  S
C424        C425   1.398       .  A
C424        H429   1.084       .  S
C425        C426   1.410       .  A
C426       N1141   1.440       .  S
N427       C1140   1.440       .  S
N427        O431   1.263       .  A
N427        O432   1.262       .  A
N430        O433   1.262       .  A
N430        O434   1.263       .  A
C435        C436   1.405       .  A
C435        C440   1.403       .  A
C435        H442   1.084       .  S
C436        C437   1.417       .  A
C437        C438   1.404       .  A
C437        N444   1.439       .  S
C438        C439   1.399       .  A
C438        H443   1.082       .  S
C439        C440   1.412       .  A
C440        N441   1.438       .  S
N441        O446   1.262       .  A
N441       O1159   1.263   1_554  A
N444        O447   1.263       .  A
N444        O448   1.262       .  A
O445       N1155   1.263       .  A
C449        C450   1.401       .  A
C449        C454   1.403       .  A
C449        H456   1.084       .  S
C450        C451   1.413       .  A
C451        C452   1.403       .  A
C451        N458   1.442       .  S
C452        C453   1.407       .  A
C452        H457   1.084       .  S
C453        C454   1.416       .  A
C454        N455   1.437       .  S
N455        O459   1.263       .  A
N455        O460   1.262       .  A
N458        O461   1.262       .  A
N458        O462   1.263       .  A
C463        C464   1.401       .  A
C463        C468   1.404       .  A
C463        H470   1.084       .  S
C464        C465   1.416       .  A
C465        C466   1.405       .  A
C465        N472   1.444       .  S
C466        C467   1.404       .  A
C466        H471   1.084       .  S
C467        C468   1.417       .  A
C468        N469   1.439       .  S
N469        O473   1.263       .  A
N469        O474   1.262       .  A
N472        O475   1.263       .  A
N472        O476   1.262       .  A
C477        C478   1.401       .  A
C477        C482   1.400       .  A
C477        H484   1.084       .  S
C478        C479   1.419       .  A
C479        C480   1.410       .  A
C479        N486   1.447       .  S
C480        C481   1.403       .  A
C480        H485   1.083       .  S
C481        C482   1.413       .  A
C482        N483   1.441       .  S
N483        O487   1.263       .  A
N483        O488   1.261       .  A
N486        O489   1.262       .  A
N486        O490   1.263       .  A
C491        C492   1.407       .  A
C491        C496   1.404       .  A
C491        H498   1.083       .  S
C492        C493   1.419       .  A
C493        C494   1.404       .  A
C493        N500   1.438       .  S
C494        C495   1.400       .  A
C494        H499   1.084       .  S
C495        C496   1.413       .  A
C496        N497   1.442       .  S
N497        O501   1.263       .  A
N497        O502   1.262       .  A
N500        O503   1.263       .  A
N500        O504   1.263       .  A
C505        C506   1.401       .  A
C505        C510   1.407       .  A
C505        H512   1.084       .  S
C506        C507   1.412       .  A
C507        C508   1.402       .  A
C507        N514   1.443       .  S
C508        C509   1.408       .  A
C508        H513   1.083       .  S
C509        C510   1.419       .  A
C510        N511   1.438       .  S
N511        O515   1.262       .  A
N511        O516   1.263       .  A
N514        O517   1.262       .  A
N514        O518   1.263       .  A
C519        C520   1.408       .  A
C519        C524   1.402       .  A
C519        H526   1.082       .  S
C520        C521   1.416       .  A
C521        C522   1.402       .  A
C521        N528   1.436       .  S
C522        C523   1.408       .  A
C522        H527   1.083       .  S
C523        C524   1.414       .  A
C524        N525   1.434       .  S
N525        O529   1.262       .  A
N525        O530   1.262       .  A
N528        O531   1.263       .  A
N528        O532   1.263       .  A
C533        C534   1.402       .  A
C533        C538   1.399       .  A
C533        H540   1.084       .  S
C534        C535   1.415       .  A
C535        C536   1.404       .  A
C535        N542   1.438       .  S
C536        C537   1.407       .  A
C536        H541   1.083       .  S
C537        C538   1.416       .  A
C538        N539   1.433       .  S
N539        O543   1.262       .  A
N539        O544   1.263       .  A
N542        O545   1.263       .  A
N542        O546   1.262       .  A
C547        C548   1.405       .  A
C547        C552   1.401       .  A
C547        H554   1.083       .  S
C548        C549   1.420       .  A
C549        C550   1.405       .  A
C549        N556   1.436       .  S
C550        C551   1.405       .  A
C550        H555   1.084       .  S
C551        C552   1.417       .  A
C552        N553   1.435       .  S
N553        O557   1.262       .  A
N553        O558   1.262       .  A
N556        O559   1.262       .  A
N556       O1274   1.263       .  A
O560       N1270   1.263       .  A
C561        C562   1.406       .  A
C561        C566   1.402       .  A
C561        H568   1.083       .  S
C562        C563   1.411       .  A
C563        C564   1.401       .  A
C563       N1284   1.429       .  S
C564        C565   1.406       .  A
C564        H569   1.083       .  S
C565        C566   1.416       .  A
C566        N567   1.434       .  S
N567        O571   1.263       .  A
N567        O572   1.262       .  A
N570       C1277   1.429       .  S
N570        O573   1.262       .  A
N570        O574   1.261       .  A
C575        C576   1.400       .  A
C575        C580   1.403       .  A
C575        H582   1.084       .  S
C576        C577   1.412       .  A
C577        C578   1.403       .  A
C577        N584   1.442       .  S
C578        C579   1.407       .  A
C578        H583   1.083       .  S
C579        C580   1.417       .  A
C580        N581   1.436       .  S
N581        O586   1.262       .  A
N581       O1299   1.263       .  A
N584        O587   1.262       .  A
N584        O588   1.263       .  A
O585       N1295   1.263       .  A
C589        C590   1.404       .  A
C589        C594   1.407       .  A
C589        H596   1.083       .  S
C590        C591   1.413       .  A
C591        C592   1.401       .  A
C591        N598   1.437       .  S
C592        C593   1.401       .  A
C592        H597   1.084       .  S
C593        C594   1.420       .  A
C594        N595   1.449       .  S
N595        O599   1.263       .  A
N595        O600   1.261       .  A
N598        O601   1.262       .  A
N598        O602   1.263       .  A
C603        C604   1.401       .  A
C603        C608   1.399       .  A
C603        H610   1.084       .  S
C604        C605   1.417       .  A
C605        C606   1.405       .  A
C605        N612   1.444       .  S
C606        C607   1.404       .  A
C606        H611   1.084       .  S
C607        C608   1.413       .  A
C608        N609   1.431       .  S
N609        O613   1.262       .  A
N609        O614   1.262       .  A
N612        O615   1.262       .  A
N612        O616   1.263       .  A
C617        C618   1.405       .  A
C617        C622   1.404       .  A
C617        H624   1.084       .  S
C618        C619   1.416       .  A
C619        C620   1.400       .  A
C619        N626   1.438       .  S
C620        C621   1.405       .  A
C620        H625   1.084       .  S
C621        C622   1.417       .  A
C622        N623   1.439       .  S
N623        O627   1.263       .  A
N623        O628   1.263       .  A
N626        O629   1.263       .  A
N626        O630   1.263       .  A
C631        C632   1.401       .  A
C631        C636   1.402       .  A
C631        H638   1.084       .  S
C632        C633   1.415       .  A
C633        C634   1.405       .  A
C633        N640   1.443       .  S
C634        C635   1.404       .  A
C634        H639   1.084       .  S
C635        C636   1.415       .  A
C636        N637   1.440       .  S
N637        O641   1.263       .  A
N637        O642   1.263       .  A
N640        O643   1.262       .  A
N640        O644   1.263       .  A
C645        C646   1.404       .  A
C645        C650   1.401       .  A
C645        H652   1.084       .  S
C646        C647   1.414       .  A
C647        C648   1.403       .  A
C647        N654   1.439       .  S
C648        C649   1.410       .  A
C648        H653   1.083       .  S
C649        C650   1.419       .  A
C650        N651   1.432       .  S
N651        O655   1.262       .  A
N651        O656   1.262       .  A
N654        O657   1.263       .  A
N654        O658   1.263       .  A
C659        C660   1.400       .  A
C659        C664   1.399       .  A
C659        H666   1.084       .  S
C660        C661   1.413       .  A
C661        C662   1.404       .  A
C661        N668   1.439       .  S
C662        C663   1.410       .  A
C662        H667   1.083       .  S
C663        C664   1.418       .  A
C664        N665   1.429       .  S
N665        O669   1.262       .  A
N665        O670   1.261       .  A
N668        O671   1.263       .  A
N668        O672   1.263       .  A
C673        C674   1.411       .  A
C673        C678   1.408       .  A
C673        H680   1.082       .  S
C674        C675   1.421       .  A
C675        C676   1.400       .  A
C675        N682   1.435       .  S
C676        C677   1.397       .  A
C676        H681   1.085       .  S
C677        C678   1.414       .  A
C678       N1393   1.444       .  S
N679       C1392   1.444       .  S
N679        O683   1.263       .  A
N679        O684   1.262       .  A
N682        O685   1.262       .  A
N682        O686   1.263       .  A
C687        C688   1.408       .  A
C687        C692   1.406       .  A
C687        H694   1.083       .  S
C688        C689   1.423       .  A
C689        C690   1.403       .  A
C689        N696   1.438       .  S
C690        C691   1.398       .  A
C690        H695   1.084       .  S
C691        C692   1.417       .  A
C692        N693   1.447       .  S
N693        O697   1.263       .  A
N693        O698   1.262       .  A
N696        O700   1.262       .  A
N696       O1413   1.261       .  A
O699       N1410   1.261       .  A
C701        C702   1.402       .  A
C701        C706   1.406       .  A
C701        H708   1.084       .  S
C702        C703   1.417       .  A
C703        C704   1.403       .  A
C703        N710   1.445       .  S
C704        C705   1.400       .  A
C704        H709   1.084       .  S
C705        C706   1.416       .  A
C706        N707   1.443       .  S
N707        O711   1.263       .  A
N707        O712   1.262       .  A
N710        O713   1.262       .  A
N710        O714   1.263       .  A
C715        C716   1.410       .  A
C715        C720   1.412       .  A
C715       C1388   1.501       .  S
C716        C717   1.401       .  A
C716        H721   1.082       .  S
C717        C718   1.398       .  A
C717       C1416   1.474       .  S
C718        C719   1.399       .  A
C718        H722   1.084       .  S
C719        C720   1.404       .  A
C719       C1405   1.476       .  S
C720        H723   1.083       .  S
C724        C725   1.406       .  A
C724        C729   1.405       .  A
C724       C1360   1.487       .  S
C725        C726   1.401       .  A
C725        H730   1.084       .  S
C726        C727   1.400       .  A
C726       C1419   1.473       .  S
C727        C728   1.402       .  A
C727        H731   1.084       .  S
C728        C729   1.404       .  A
C728       C1374   1.481       .  S
C729        H732   1.084       .  S
C733        C734   1.402       .  A
C733        C738   1.399       .  A
C733       C1346   1.472       .  S
C734        C735   1.406       .  A
C734        H739   1.084       .  S
C735        C736   1.406       .  A
C735       C1335   1.487       .  S
C736        C737   1.400       .  A
C736        H740   1.084       .  S
C737        C738   1.399       .  A
C737       C1318   1.472       .  S
C738        H741   1.084       .  S
C742        C743   1.403       .  A
C742        C747   1.405       .  A
C742       C1304   1.484       .  S
C743        C744   1.402       .  A
C743        H748   1.084       .  S
C744        C745   1.403       .  A
C744       C1332   1.486       .  S
C745        C746   1.406       .  A
C745        H749   1.084       .  S
C746        C747   1.406       .  A
C746       C1293   1.490       .  S
C747        H750   1.083       .  S
C751        C752   1.408       .  A
C751        C756   1.407       .  A
C751       C1279   1.494       .  S
C752        C753   1.405       .  A
C752        H757   1.083       .  S
C753        C754   1.407       .  A
C753       C1262   1.496       .  S
C754        C755   1.404       .  A
C754        H758   1.082       .  S
C755        C756   1.406       .  A
C755       C1251   1.494       .  S
C756        H759   1.083       .  S
C760        C761   1.410       .  A
C760        C765   1.404       .  A
C760       C1237   1.493       .  S
C761        C762   1.409       .  A
C761        H766   1.081       .  S
C762        C763   1.407       .  A
C762       C1223   1.494       .  S
C763        C764   1.401       .  A
C763        H767   1.084       .  S
C764        C765   1.399       .  A
C764       C1248   1.484       .  S
C765        H768   1.084       .  S
C769        C770   1.407       .  A
C769        C774   1.408       .  A
C769       C1206   1.493       .  S
C770        C771   1.402       .  A
C770        H775   1.084       .  S
C771        C772   1.399       .  A
C771       C1178   1.474       .  S
C772        C773   1.401       .  A
C772        H776   1.084       .  S
C773        C774   1.402       .  A
C773       C1195   1.476       .  S
C774        H777   1.083       .  S
C778        C779   1.401       .  A
C778        C783   1.401       .  A
C778       C1164   1.473       .  S
C779        C780   1.401       .  A
C779        H784   1.084       .  S
C780        C781   1.402       .  A
C780       C1192   1.475       .  S
C781        C782   1.406       .  A
C781        H785   1.084       .  S
C782        C783   1.405       .  A
C782       C1150   1.485       .  S
C783        H786   1.084       .  S
C787        C788   1.407       .  A
C787        C792   1.402       .  A
C787       C1111   1.489       .  S
C788        C789   1.413       .  A
C788        H793   1.082       .  S
C789        C790   1.411       .  A
C789       C1136   1.505       .  S
C790        C791   1.401       .  A
C790        H794   1.081       .  S
C791        C792   1.396       .  A
C791       C1122   1.474       .  S
C792        H795   1.084       .  S
C796        C797   1.401       .  A
C796        C801   1.402       .  A
C796       C1083   1.474       .  S
C797        C798   1.400       .  A
C797        H802   1.084       .  S
C798        C799   1.401       .  A
C798       C1125   1.474       .  S
C799        C800   1.405       .  A
C799        H803   1.084       .  S
C800        C801   1.406       .  A
C800       C1094   1.485       .  S
C801        H804   1.084       .  S
C805        C806   1.407       .  A
C805        C810   1.406       .  A
C805       C1069   1.492       .  S
C806        C807   1.404       .  A
C806        H811   1.083       .  S
C807        C808   1.403       .  A
C807       C1055   1.482       .  S
C808        C809   1.403       .  A
C808        H812   1.084       .  S
C809        C810   1.402       .  A
C809       C1038   1.482       .  S
C810        H813   1.083       .  S
C814        C815   1.402       .  A
C814        C819   1.403       .  A
C814       C1027   1.478       .  S
C815        C816   1.402       .  A
C815        H820   1.084       .  S
C816        C817   1.402       .  A
C816       C1041   1.487       .  S
C817        C818   1.408       .  A
C817        H821   1.083       .  S
C818        C819   1.407       .  A
C818       C1013   1.494       .  S
C819        H822   1.083       .  S
O823       Zr835   2.442       .  S
O823        C825   1.287       .  A
O824        C825   1.286       .  A
C825       C1391   1.469       .  S
O826       Zr838   2.439       .  S
O826        C828   1.288       .  A
O827       Zr862   2.426       .  S
O827        C828   1.287       .  A
C828       C1080   1.478       .  S
O829       Zr838   2.441       .  S
O829        C831   1.289       .  A
O830       Zr861   2.423       .  S
O830        C831   1.285       .  A
C831       C1363   1.496       .  S
O832       Zr835   2.447       .  S
O832        C834   1.289       .  A
O833        C834   1.284       .  A
C834       C1108   1.468       .  S
Zr835       O836   2.434       .  S
Zr835       O837   2.435       .  S
Zr835       O865   2.370       .  S
Zr835       O867   2.375       .  S
O836        H879   0.990       .  S
O837        H878   0.990       .  S
O837        H882   0.990       .  S
Zr838       O839   2.435       .  S
Zr838       O840   2.435       .  S
Zr838       O842   2.371       .  S
Zr838       O841   2.370       .  S
Zr838       O866   2.370       .  S
Zr838       O868   2.375       .  S
O839        H880   0.990       .  S
O839        H883   0.990       .  S
O840        H873   0.990       .  S
O841       Zr861   2.381       .  S
O842       Zr862   2.384       .  S
O842        H869   0.966       .  S
O843       Zr855   2.436       .  S
O843        C845   1.287       .  A
O844        C845   1.287       .  A
C845       C1010   1.488       .  S
O846       Zr858   2.438       .  S
O846        C848   1.287       .  A
O847       Zr861   2.428       .  S
O847        C848   1.287       .  A
C848       C1220   1.469       .  S
O849       Zr858   2.444       .  S
O849        C851   1.287       .  A
O850       Zr862   2.421       .  S
O850        C851   1.287       .  A
C851       C1052   1.495       .  S
O852       Zr855   2.437       .  S
O852        C854   1.287       .  A
O853        C854   1.289       .  A
C854       C1265   1.491       .  S
Zr855       O856   2.435       .  S
Zr855       O857   2.432       .  S
Zr855       O867   2.370       .  S
Zr855       O865   2.369       .  S
O856        H876   0.990       .  S
O856        H881   0.990       .  S
O857        H877   0.990       .  S
Zr858       O859   2.433       .  S
Zr858       O860   2.434       .  S
Zr858       O864   2.373       .  S
Zr858       O863   2.368       .  S
Zr858       O868   2.372       .  S
Zr858       O866   2.369       .  S
O859        H875   0.990       .  S
O860        H874   0.990       .  S
O860        H884   0.990       .  S
Zr861       O864   2.380       .  S
Zr861       O866   2.382       .  S
Zr862       O863   2.383       .  S
Zr862       O868   2.380       .  S
O863        H871   0.966       .  S
O866        H870   0.965       .  S
O867        H872   0.966       .  S
O885       Zr897   2.440   1_455  S
O885        C887   1.287       .  A
O886       Zr923   2.421       .  S
O886        C887   1.287       .  A
C887       C1321   1.480       .  S
O888       Zr900   2.439       .  S
O888        C890   1.287       .  A
O889        C890   1.287       .  A
C890       C1139   1.471       .  S
O891       Zr900   2.443   1_455  S
O891        C893   1.288       .  A
O892        C893   1.285       .  A
C893       C1290   1.466       .  S
O894       Zr897   2.443       .  S
O894        C896   1.290       .  A
O895       Zr924   2.418       .  S
O895        C896   1.285       .  A
C896       C1097   1.495       .  S
Zr897       O898   2.434       .  S
Zr897       O899   2.436       .  S
Zr897       O903   2.372   1_655  S
Zr897       O904   2.366       .  S
Zr897       O927   2.370       .  S
Zr897       O929   2.371   1_655  S
O898        H941   0.990       .  S
O899        H940   0.990   1_655  S
O899        H944   0.990       .  S
Zr900       O901   2.435       .  S
Zr900       O902   2.435       .  S
Zr900       O928   2.371   1_655  S
Zr900       O930   2.374       .  S
O901        H942   0.990       .  S
O901        H945   0.990       .  S
O902        H935   0.990   1_655  S
O903       Zr923   2.381       .  S
O904       Zr924   2.383       .  S
O904        H931   0.965       .  S
O905       Zr917   2.446       .  S
O905        C907   1.288       .  A
O906       Zr924   2.424       .  S
O906        C907   1.286       .  A
C907       C1209   1.469       .  S
O908       Zr920   2.423   1_455  S
O908        C910   1.285       .  A
O909        C910   1.290       .  A
C910       C1276   1.490       .  S
O911       Zr920   2.434       .  S
O911        C913   1.287       .  A
O912        C913   1.287       .  A
C913       C1167   1.484       .  S
O914       Zr917   2.455   1_455  S
O914        C916   1.291       .  A
O915       Zr923   2.419       .  S
O915        C916   1.286       .  A
C916       C1234   1.494       .  S
Zr917       O918   2.435       .  S
Zr917       O919   2.433       .  S
Zr917       O925   2.374       .  S
Zr917       O926   2.372   1_655  S
Zr917       O929   2.368   1_655  S
Zr917       O927   2.373       .  S
O918        H938   0.990       .  S
O918        H943   0.990       .  S
O919        H939   0.990       .  S
Zr920       O921   2.434       .  S
Zr920       O922   2.434       .  S
Zr920       O930   2.369       .  S
Zr920       O928   2.367   1_655  S
O921        H937   0.990       .  S
O922        H936   0.990       .  S
O922        H946   0.990       .  S
Zr923       O926   2.379       .  S
Zr923       O929   2.386       .  S
Zr924       O925   2.382       .  S
Zr924       O927   2.382       .  S
O925        H933   0.965       .  S
O928        H932   0.965       .  S
O929        H934   0.966       .  S
O947       Zr959   2.441       .  S
O947        C949   1.289       .  A
O948       Zr985   2.426       .  S
O948        C949   1.286       .  A
C949       C1377   1.496       .  S
O950       Zr962   2.442   1_545  S
O950        C952   1.287       .  A
O951        C952   1.287       .  A
C952       C1153   1.471       .  S
O953       Zr962   2.456       .  S
O953        C955   1.292       .  A
O954        C955   1.282       .  A
C955       C1402   1.491       .  S
O956       Zr959   2.446   1_545  S
O956        C958   1.289       .  A
O957       Zr986   2.421       .  S
O957        C958   1.286       .  A
C958       C1181   1.480       .  S
Zr959       O960   2.434       .  S
Zr959       O961   2.435       .  S
Zr959       O965   2.374       .  S
Zr959       O966   2.370   1_565  S
Zr959       O989   2.371   1_565  S
Zr959       O991   2.374       .  S
O960       H1003   0.990       .  S
O961       H1002   0.990       .  S
O961       H1006   0.990       .  S
Zr962       O963   2.435       .  S
Zr962       O964   2.435       .  S
Zr962       O990   2.364       .  S
Zr962       O992   2.381   1_565  S
O963       H1004   0.990   1_565  S
O963       H1007   0.990   1_565  S
O964        H997   0.990       .  S
O965       Zr985   2.380       .  S
O966       Zr986   2.386       .  S
O966        H993   0.966       .  S
O967       Zr979   2.435   1_545  S
O967        C969   1.288       .  A
O968       Zr986   2.428       .  S
O968        C969   1.287       .  A
C969       C1066   1.491       .  S
O970       Zr982   2.435       .  S
O970        C972   1.286       .  A
O971        C972   1.286       .  A
C972       C1307   1.466       .  S
O973       Zr982   2.441   1_545  S
O973        C975   1.287       .  A
O974        C975   1.286       .  A
C975       C1024   1.475       .  S
O976       Zr979   2.440       .  S
O976        C978   1.288       .  A
O977       Zr985   2.417       .  S
O977        C978   1.285       .  A
C978       C1349   1.476       .  S
Zr979       O980   2.436       .  S
Zr979       O981   2.434       .  S
Zr979       O987   2.368   1_565  S
Zr979       O988   2.370       .  S
Zr979       O991   2.367       .  S
Zr979       O989   2.373   1_565  S
O980       H1000   0.990   1_565  S
O980       H1005   0.990   1_565  S
O981       H1001   0.990   1_565  S
Zr982       O983   2.434       .  S
Zr982       O984   2.434       .  S
Zr982       O992   2.373   1_565  S
Zr982       O990   2.369       .  S
O983        H999   0.990       .  S
O984        H998   0.990   1_565  S
O984       H1008   0.990       .  S
Zr985       O988   2.379       .  S
Zr985       O991   2.382       .  S
Zr986       O987   2.382       .  S
Zr986       O989   2.382       .  S
O987        H995   0.966       .  S
O990        H994   0.964       .  S
O991        H996   0.966       .  S
C1009      C1010   1.406       .  A
C1009      C1014   1.404       .  A
C1009      H1016   1.083       .  S
C1010      C1011   1.416       .  A
C1011      C1012   1.399       .  A
C1011      N1018   1.435       .  S
C1012      C1013   1.405       .  A
C1012      H1017   1.083       .  S
C1013      C1014   1.420       .  A
C1014      N1015   1.437       .  S
N1015      O1020   1.263       .  A
N1018      O1021   1.262       .  A
N1018      O1022   1.262       .  A
C1023      C1024   1.405       .  A
C1023      C1028   1.407       .  A
C1023      H1030   1.084       .  S
C1024      C1025   1.411       .  A
C1025      C1026   1.399       .  A
C1025      N1032   1.434       .  S
C1026      C1027   1.402       .  A
C1026      H1031   1.084       .  S
C1027      C1028   1.415       .  A
C1028      N1029   1.441       .  S
N1029      O1033   1.263       .  A
N1029      O1034   1.263       .  A
N1032      O1035   1.261       .  A
N1032      O1036   1.262       .  A
C1037      C1038   1.404       .  A
C1037      C1042   1.403       .  A
C1037      H1044   1.084       .  S
C1038      C1039   1.414       .  A
C1039      C1040   1.403       .  A
C1039      N1046   1.439       .  S
C1040      C1041   1.405       .  A
C1040      H1045   1.084       .  S
C1041      C1042   1.416       .  A
C1042      N1043   1.440       .  S
N1043      O1047   1.263       .  A
N1043      O1048   1.263       .  A
N1046      O1049   1.263       .  A
N1046      O1050   1.263       .  A
C1051      C1052   1.409       .  A
C1051      C1056   1.403       .  A
C1051      H1058   1.083       .  S
C1052      C1053   1.419       .  A
C1053      C1054   1.401       .  A
C1053      N1060   1.430       .  S
C1054      C1055   1.401       .  A
C1054      H1059   1.084       .  S
C1055      C1056   1.414       .  A
C1056      N1057   1.439       .  S
N1057      O1061   1.263       .  A
N1057      O1062   1.263       .  A
N1060      O1063   1.262       .  A
N1060      O1064   1.262       .  A
C1065      C1066   1.408       .  A
C1065      C1070   1.402       .  A
C1065      H1072   1.083       .  S
C1066      C1067   1.415       .  A
C1067      C1068   1.401       .  A
C1067      N1074   1.430       .  S
C1068      C1069   1.407       .  A
C1068      H1073   1.084       .  S
C1069      C1070   1.417       .  A
C1070      N1071   1.438       .  S
N1071      O1075   1.263       .  A
N1071      O1076   1.263       .  A
N1074      O1077   1.262       .  A
N1074      O1078   1.262       .  A
C1079      C1080   1.405       .  A
C1079      C1084   1.405       .  A
C1079      H1086   1.084       .  S
C1080      C1081   1.414       .  A
C1081      C1082   1.403       .  A
C1081      N1088   1.439       .  S
C1082      C1083   1.402       .  A
C1082      H1087   1.084       .  S
C1083      C1084   1.415       .  A
C1084      N1085   1.444       .  S
N1085      O1089   1.263       .  A
N1085      O1090   1.262       .  A
N1088      O1091   1.263       .  A
N1088      O1092   1.263       .  A
C1093      C1094   1.403       .  A
C1093      C1098   1.402       .  A
C1093      H1100   1.084       .  S
C1094      C1095   1.414       .  A
C1095      C1096   1.402       .  A
C1095      N1102   1.438       .  S
C1096      C1097   1.409       .  A
C1096      H1101   1.083       .  S
C1097      C1098   1.420       .  A
C1098      N1099   1.435       .  S
N1099      O1103   1.263       .  A
N1099      O1104   1.263       .  A
N1102      O1105   1.262       .  A
N1102      O1106   1.263       .  A
C1107      C1108   1.400       .  A
C1107      C1112   1.403       .  A
C1107      H1114   1.084       .  S
C1108      C1109   1.413       .  A
C1109      C1110   1.405       .  A
C1109      N1116   1.443       .  S
C1110      C1111   1.407       .  A
C1110      H1115   1.083       .  S
C1111      C1112   1.418       .  A
C1112      N1113   1.438       .  S
N1113      O1118   1.263       .  A
N1116      O1119   1.262       .  A
N1116      O1120   1.263       .  A
C1121      C1122   1.403       .  A
C1121      C1126   1.408       .  A
C1121      H1128   1.084       .  S
C1122      C1123   1.421       .  A
C1123      C1124   1.403       .  A
C1123      N1130   1.450       .  S
C1124      C1125   1.399       .  A
C1124      H1129   1.084       .  S
C1125      C1126   1.416       .  A
C1126      N1127   1.445       .  S
N1127      O1131   1.263       .  A
N1127      O1132   1.262       .  A
N1130      O1133   1.261       .  A
N1130      O1134   1.263       .  A
C1135      C1136   1.412       .  A
C1135      C1140   1.404       .  A
C1135      H1142   1.082       .  S
C1136      C1137   1.424       .  A
C1137      C1138   1.403       .  A
C1137      N1144   1.435       .  S
C1138      C1139   1.398       .  A
C1138      H1143   1.084       .  S
C1139      C1140   1.410       .  A
N1141      O1145   1.263   1_554  A
N1141      O1146   1.262   1_554  A
N1144      O1147   1.262       .  A
N1144      O1148   1.263       .  A
C1149      C1150   1.405       .  A
C1149      C1154   1.404       .  A
C1149      H1156   1.084       .  S
C1150      C1151   1.417       .  A
C1151      C1152   1.403       .  A
C1151      N1158   1.439       .  S
C1152      C1153   1.399       .  A
C1152      H1157   1.082       .  S
C1153      C1154   1.413       .  A
C1154      N1155   1.439       .  S
N1155      O1160   1.262       .  A
N1158      O1161   1.263       .  A
N1158      O1162   1.262       .  A
C1163      C1164   1.401       .  A
C1163      C1168   1.403       .  A
C1163      H1170   1.084       .  S
C1164      C1165   1.413       .  A
C1165      C1166   1.403       .  A
C1165      N1172   1.442       .  S
C1166      C1167   1.407       .  A
C1166      H1171   1.084       .  S
C1167      C1168   1.416       .  A
C1168      N1169   1.437       .  S
N1169      O1173   1.263       .  A
N1169      O1174   1.262       .  A
N1172      O1175   1.262       .  A
N1172      O1176   1.263       .  A
C1177      C1178   1.401       .  A
C1177      C1182   1.404       .  A
C1177      H1184   1.084       .  S
C1178      C1179   1.416       .  A
C1179      C1180   1.405       .  A
C1179      N1186   1.444       .  S
C1180      C1181   1.404       .  A
C1180      H1185   1.084       .  S
C1181      C1182   1.417       .  A
C1182      N1183   1.439       .  S
N1183      O1187   1.263       .  A
N1183      O1188   1.262       .  A
N1186      O1189   1.263       .  A
N1186      O1190   1.262       .  A
C1191      C1192   1.401       .  A
C1191      C1196   1.399       .  A
C1191      H1198   1.084       .  S
C1192      C1193   1.419       .  A
C1193      C1194   1.410       .  A
C1193      N1200   1.447       .  S
C1194      C1195   1.403       .  A
C1194      H1199   1.083       .  S
C1195      C1196   1.413       .  A
C1196      N1197   1.441       .  S
N1197      O1201   1.263       .  A
N1197      O1202   1.261       .  A
N1200      O1203   1.262       .  A
N1200      O1204   1.263       .  A
C1205      C1206   1.407       .  A
C1205      C1210   1.404       .  A
C1205      H1212   1.083       .  S
C1206      C1207   1.419       .  A
C1207      C1208   1.404       .  A
C1207      N1214   1.438       .  S
C1208      C1209   1.400       .  A
C1208      H1213   1.084       .  S
C1209      C1210   1.413       .  A
C1210      N1211   1.442       .  S
N1211      O1215   1.263       .  A
N1211      O1216   1.262       .  A
N1214      O1217   1.263       .  A
N1214      O1218   1.263       .  A
C1219      C1220   1.401       .  A
C1219      C1224   1.407       .  A
C1219      H1226   1.084       .  S
C1220      C1221   1.412       .  A
C1221      C1222   1.402       .  A
C1221      N1228   1.443       .  S
C1222      C1223   1.408       .  A
C1222      H1227   1.083       .  S
C1223      C1224   1.419       .  A
C1224      N1225   1.438       .  S
N1225      O1229   1.262       .  A
N1225      O1230   1.263       .  A
N1228      O1231   1.262       .  A
N1228      O1232   1.263       .  A
C1233      C1234   1.408       .  A
C1233      C1238   1.402       .  A
C1233      H1240   1.082       .  S
C1234      C1235   1.416       .  A
C1235      C1236   1.402       .  A
C1235      N1242   1.436       .  S
C1236      C1237   1.408       .  A
C1236      H1241   1.083       .  S
C1237      C1238   1.414       .  A
C1238      N1239   1.434       .  S
N1239      O1243   1.262       .  A
N1239      O1244   1.262       .  A
N1242      O1245   1.263       .  A
N1242      O1246   1.263       .  A
C1247      C1248   1.402       .  A
C1247      C1252   1.399       .  A
C1247      H1254   1.084       .  S
C1248      C1249   1.415       .  A
C1249      C1250   1.404       .  A
C1249      N1256   1.438       .  S
C1250      C1251   1.407       .  A
C1250      H1255   1.083       .  S
C1251      C1252   1.416       .  A
C1252      N1253   1.433       .  S
N1253      O1257   1.262       .  A
N1253      O1258   1.263       .  A
N1256      O1259   1.263       .  A
N1256      O1260   1.262       .  A
C1261      C1262   1.405       .  A
C1261      C1266   1.401       .  A
C1261      H1268   1.083       .  S
C1262      C1263   1.420       .  A
C1263      C1264   1.405       .  A
C1263      N1270   1.436       .  S
C1264      C1265   1.405       .  A
C1264      H1269   1.084       .  S
C1265      C1266   1.417       .  A
C1266      N1267   1.435       .  S
N1267      O1271   1.262       .  A
N1267      O1272   1.262       .  A
N1270      O1273   1.262       .  A
C1275      C1276   1.406       .  A
C1275      C1280   1.402       .  A
C1275      H1282   1.083       .  S
C1276      C1277   1.411       .  A
C1277      C1278   1.401       .  A
C1278      C1279   1.406       .  A
C1278      H1283   1.083       .  S
C1279      C1280   1.416       .  A
C1280      N1281   1.434       .  S
N1281      O1285   1.263       .  A
N1281      O1286   1.262       .  A
N1284      O1287   1.262       .  A
N1284      O1288   1.261   1_554  A
C1289      C1290   1.400       .  A
C1289      C1294   1.403       .  A
C1289      H1296   1.084       .  S
C1290      C1291   1.412       .  A
C1291      C1292   1.403       .  A
C1291      N1298   1.442       .  S
C1292      C1293   1.407       .  A
C1292      H1297   1.083       .  S
C1293      C1294   1.417       .  A
C1294      N1295   1.436       .  S
N1295      O1300   1.262       .  A
N1298      O1301   1.262       .  A
N1298      O1302   1.263       .  A
C1303      C1304   1.404       .  A
C1303      C1308   1.407       .  A
C1303      H1310   1.083       .  S
C1304      C1305   1.413       .  A
C1305      C1306   1.401       .  A
C1305      N1312   1.437       .  S
C1306      C1307   1.401       .  A
C1306      H1311   1.084       .  S
C1307      C1308   1.420       .  A
C1308      N1309   1.449       .  S
N1309      O1313   1.263       .  A
N1309      O1314   1.261       .  A
N1312      O1315   1.262       .  A
N1312      O1316   1.263       .  A
C1317      C1318   1.401       .  A
C1317      C1322   1.399       .  A
C1317      H1324   1.084       .  S
C1318      C1319   1.417       .  A
C1319      C1320   1.405       .  A
C1319      N1326   1.444       .  S
C1320      C1321   1.404       .  A
C1320      H1325   1.084       .  S
C1321      C1322   1.413       .  A
C1322      N1323   1.431       .  S
N1323      O1327   1.262       .  A
N1323      O1328   1.262       .  A
N1326      O1329   1.262       .  A
N1326      O1330   1.263       .  A
C1331      C1332   1.405       .  A
C1331      C1336   1.404       .  A
C1331      H1338   1.084       .  S
C1332      C1333   1.416       .  A
C1333      C1334   1.400       .  A
C1333      N1340   1.438       .  S
C1334      C1335   1.405       .  A
C1334      H1339   1.084       .  S
C1335      C1336   1.417       .  A
C1336      N1337   1.439       .  S
N1337      O1341   1.263       .  A
N1337      O1342   1.263       .  A
N1340      O1343   1.263       .  A
N1340      O1344   1.263       .  A
C1345      C1346   1.401       .  A
C1345      C1350   1.402       .  A
C1345      H1352   1.084       .  S
C1346      C1347   1.415       .  A
C1347      C1348   1.405       .  A
C1347      N1354   1.443       .  S
C1348      C1349   1.404       .  A
C1348      H1353   1.084       .  S
C1349      C1350   1.415       .  A
C1350      N1351   1.440       .  S
N1351      O1355   1.263       .  A
N1351      O1356   1.263       .  A
N1354      O1357   1.262       .  A
N1354      O1358   1.263       .  A
C1359      C1360   1.404       .  A
C1359      C1364   1.401       .  A
C1359      H1366   1.084       .  S
C1360      C1361   1.414       .  A
C1361      C1362   1.403       .  A
C1361      N1368   1.439       .  S
C1362      C1363   1.410       .  A
C1362      H1367   1.083       .  S
C1363      C1364   1.419       .  A
C1364      N1365   1.432       .  S
N1365      O1369   1.262       .  A
N1365      O1370   1.262       .  A
N1368      O1371   1.263       .  A
N1368      O1372   1.263       .  A
C1373      C1374   1.400       .  A
C1373      C1378   1.399       .  A
C1373      H1380   1.084       .  S
C1374      C1375   1.413       .  A
C1375      C1376   1.404       .  A
C1375      N1382   1.439       .  S
C1376      C1377   1.410       .  A
C1376      H1381   1.083       .  S
C1377      C1378   1.418       .  A
C1378      N1379   1.429       .  S
N1379      O1383   1.262       .  A
N1379      O1384   1.261       .  A
N1382      O1385   1.263       .  A
N1382      O1386   1.263       .  A
C1387      C1388   1.411       .  A
C1387      C1392   1.408       .  A
C1387      H1394   1.082       .  S
C1388      C1389   1.421       .  A
C1389      C1390   1.400       .  A
C1389      N1396   1.435       .  S
C1390      C1391   1.397       .  A
C1390      H1395   1.085       .  S
C1391      C1392   1.414       .  A
N1393      O1397   1.263   1_554  A
N1393      O1398   1.262   1_554  A
N1396      O1399   1.262       .  A
N1396      O1400   1.263       .  A
C1401      C1402   1.408       .  A
C1401      C1406   1.406       .  A
C1401      H1408   1.083       .  S
C1402      C1403   1.423       .  A
C1403      C1404   1.403       .  A
C1403      N1410   1.438       .  S
C1404      C1405   1.398       .  A
C1404      H1409   1.084       .  S
C1405      C1406   1.417       .  A
C1406      N1407   1.447       .  S
N1407      O1411   1.263       .  A
N1407      O1412   1.262       .  A
N1410      O1414   1.262       .  A
C1415      C1416   1.402       .  A
C1415      C1420   1.406       .  A
C1415      H1422   1.084       .  S
C1416      C1417   1.417       .  A
C1417      C1418   1.403       .  A
C1417      N1424   1.445       .  S
C1418      C1419   1.400       .  A
C1418      H1423   1.084       .  S
C1419      C1420   1.416       .  A
C1420      N1421   1.443       .  S
N1421      O1425   1.263       .  A
N1421      O1426   1.262       .  A
N1424      O1427   1.262       .  A
N1424      O1428   1.263       .  A
