geometry optimzed in LAMMPS
_audit_creation_date              2020-12-01 
_audit_creation_method            'lammps2cif' 
_symmetry_space_group_name_H-M    'P1' 
_symmetry_Int_Tables_number       1 
_symmetry_cell_setting            triclinic 
loop_ 
_symmetry_equiv_pos_as_xyz 
  x,y,z 
_cell_length_a                    38.37432909 
_cell_length_b                    36.96114084781842 
_cell_length_c                    37.23457677847136 
_cell_angle_alpha                 89.12593659564952 
_cell_angle_beta                  90.25424951041482 
_cell_angle_gamma                 87.58600098946997 
loop_ 
_atom_site_label 
_atom_site_type_symbol 
_atom_site_fract_x 
_atom_site_fract_y 
_atom_site_fract_z 
_atom_site_charge 
N1          N  0.46040010  0.45355088  0.06418902    -0.06600
N2          N  0.43663372  0.44438473  0.08784746    -0.58700
N3          N  0.03874157  0.42476563  0.04109228    -0.06300
N4          N  0.06334108  0.39918303  0.04615445    -0.60900
N5          N  0.03997301  0.44917421  0.06637081    -0.05900
N6          N  0.06550004  0.44048532  0.08919249    -0.58700
N7          N  0.46285233  0.42927175  0.03872215    -0.05600
N8          N  0.44129983  0.40301226  0.04465078    -0.61200
C9          C  0.42481064  0.41299924  0.07506004     0.95600
C10         C  0.07994633  0.40923765  0.07619542     0.95300
N11         N  0.04490581  0.45437962  0.42936788    -0.06800
N12         N  0.07044856  0.44875738  0.40633239    -0.59300
N13         N  0.45817889  0.44025326  0.45532268    -0.04900
N14         N  0.43564223  0.41616043  0.44543998    -0.60600
N15         N  0.46009327  0.46590800  0.43060033    -0.06800
N16         N  0.43908565  0.45955219  0.40334518    -0.59600
N17         N  0.04522313  0.42819275  0.45371107    -0.04600
N18         N  0.07113505  0.40423418  0.44763075    -0.60600
Mn19       Mn  0.49727419  0.43528213  0.49919894     1.18400
C20         C  0.08688945  0.41758370  0.41803623     0.97700
C21         C  0.42369449  0.42856696  0.41303649     0.98300
N22         N  0.03972963  0.04011591  0.06819249    -0.06800
N23         N  0.06270722  0.04688673  0.09353335    -0.63100
N24         N  0.46332180  0.06011002  0.04443266    -0.05600
N25         N  0.43993075  0.08565986  0.05314733    -0.63800
N26         N  0.46435136  0.03410661  0.06900463    -0.06300
N27         N  0.44151264  0.04135250  0.09470290    -0.63400
N28         N  0.03903564  0.06602630  0.04350710    -0.05200
N29         N  0.06148478  0.09086734  0.05175573    -0.64100
Mn30       Mn  0.00128098  0.99689227  0.06819268     1.10700
C31         C  0.07637057  0.07853507  0.08297775     0.98900
C32         C  0.42638191  0.07364517  0.08445272     0.99000
N33         N  0.46855844  0.04732133  0.43342491    -0.06400
N34         N  0.44614334  0.05688116  0.40757347    -0.61700
N35         N  0.04561939  0.06570688  0.45993521    -0.05700
N36         N  0.06873533  0.09018661  0.45222002    -0.58500
N37         N  0.04561548  0.04108486  0.43480512    -0.07000
N38         N  0.06867741  0.04834398  0.40970052    -0.61300
N39         N  0.46811788  0.07192100  0.45867460    -0.06000
N40         N  0.44505556  0.09842840  0.45068672    -0.58500
Mn41       Mn  0.50133748  0.50587531  0.43308125     1.20200
Mn42       Mn  0.99896721  0.06794442  0.00037476     1.10100
Cl43       Cl  0.00082289  0.99901069  0.99976805    -0.86500
C44         C  0.43137553  0.08856207  0.41890026     0.95900
C45         C  0.08324512  0.07899813  0.42087533     0.95700
C46         C  0.18006413  0.16372872  0.32999936    -0.03000
C47         C  0.18041422  0.33062955  0.32323062    -0.03000
C48         C  0.17991328  0.32366879  0.16691943    -0.03000
C49         C  0.17654854  0.16077352  0.16778291    -0.03000
C50         C  0.32597123  0.17530477  0.33394057    -0.03000
C51         C  0.32381135  0.16011557  0.17099810    -0.03000
C52         C  0.33594460  0.32336916  0.16444023    -0.03000
C53         C  0.33913466  0.33529382  0.32166187    -0.03000
C54         C  0.32892363  0.36708256  0.25989815    -0.26800
C55         C  0.34923112  0.34115308  0.28020625    -0.14900
C56         C  0.37692741  0.32458438  0.26008239     0.35800
C57         C  0.37616962  0.32623695  0.22184857    -0.26300
C58         C  0.34610209  0.33878050  0.20298681    -0.15500
C59         C  0.32633593  0.36593839  0.22240974     0.36800
N60         N  0.30797131  0.39646821  0.20603490    -0.89700
H61         H  0.31305603  0.38754995  0.27349147     0.18000
H62         H  0.39869898  0.31631114  0.20701365     0.17900
N63         N  0.40708522  0.30862256  0.27716517    -0.88800
H64         H  0.28922858  0.38939592  0.18757909     0.35300
H65         H  0.32596649  0.41375516  0.19489212     0.40400
H66         H  0.42866742  0.32290153  0.26891145     0.40000
H67         H  0.41041996  0.28213632  0.26785934     0.34900
C68         C  0.31283511  0.22509753  0.13934524    -0.26800
C69         C  0.33125939  0.20194483  0.16386881    -0.14900
C70         C  0.35839847  0.21860209  0.18318277     0.35800
C71         C  0.36058947  0.25648570  0.18360570    -0.26300
C72         C  0.34102390  0.28006185  0.16006948    -0.15500
C73         C  0.32127433  0.26175587  0.13380651     0.36800
N74         N  0.30831923  0.28094528  0.10235308    -0.89700
H75         H  0.29188430  0.21571340  0.12382102     0.18000
H76         H  0.37949419  0.26539927  0.20193772     0.17900
N77         N  0.38374821  0.19705106  0.20344975    -0.88800
H78         H  0.29533025  0.26365036  0.08540208     0.35300
H79         H  0.32990998  0.28932869  0.08791887     0.40400
H80         H  0.38261368  0.20508280  0.23024921     0.40000
H81         H  0.40850272  0.20250047  0.19364093     0.34900
C82         C  0.34162921  0.13803385  0.27482857    -0.26800
C83         C  0.32408394  0.16796276  0.29167165    -0.14900
C84         C  0.30149638  0.18899925  0.26837412     0.35800
C85         C  0.30207254  0.18414036  0.23093131    -0.26300
C86         C  0.32402105  0.15822215  0.21372311    -0.15500
C87         C  0.34409020  0.13460056  0.23689282     0.36800
N88         N  0.36763278  0.10746324  0.22287755    -0.89700
H89         H  0.35470379  0.11707475  0.29094514     0.18000
H90         H  0.28456617  0.20116998  0.21443889     0.17900
N91         N  0.27512633  0.21309789  0.28248676    -0.88800
H92         H  0.36102514  0.08242993  0.23373229     0.35300
H93         H  0.39273843  0.11270710  0.23188419     0.40400
H94         H  0.25834693  0.19779708  0.29777366     0.40000
H95         H  0.25916355  0.22437025  0.26212181     0.34900
C96         C  0.36654780  0.23188757  0.33717987    -0.26800
C97         C  0.33217023  0.21785279  0.33966872    -0.14900
C98         C  0.30635736  0.24532043  0.34911667     0.35800
C99         C  0.31608053  0.28014329  0.35637859    -0.26300
C100        C  0.34413931  0.29497816  0.33802261    -0.15500
C101        C  0.37274790  0.26992544  0.33570786     0.36800
N102        N  0.40702015  0.28181420  0.34329491    -0.89700
H103        H  0.38929568  0.21411754  0.33842067     0.18000
H104        H  0.29623606  0.29747346  0.36854926     0.17900
N105        N  0.26957099  0.24151060  0.34796666    -0.88800
H106        H  0.42520420  0.26526806  0.32969928     0.35300
H107        H  0.41175182  0.27715500  0.37068330     0.40400
H108        H  0.25862799  0.25755900  0.32748897     0.40000
H109        H  0.25935700  0.25216969  0.37166160     0.34900
C110        C  0.26804127  0.12381057  0.18216138    -0.26800
C111        C  0.28615611  0.14759182  0.15907499    -0.14900
C112        C  0.26860196  0.15365729  0.12515226     0.35800
C113        C  0.23137954  0.15236451  0.12397497    -0.26300
C114        C  0.21295139  0.14270949  0.15538452    -0.15500
C115        C  0.23240340  0.11832548  0.17761458     0.36800
N116        N  0.21608002  0.08915067  0.19572333    -0.89700
H117        H  0.28130570  0.10910442  0.20386878     0.18000
H118        H  0.21738556  0.16343230  0.10074623     0.17900
N119        N  0.28691241  0.15858161  0.09193531    -0.88800
H120        H  0.22066343  0.09058241  0.22317158     0.35300
H121        H  0.22805041  0.06495789  0.18697265     0.40400
H122        H  0.31356666  0.16072487  0.09639375     0.40000
H123        H  0.27741039  0.18235500  0.07908467     0.34900
C124        C  0.14356777  0.26332059  0.16867388    -0.26800
C125        C  0.17398395  0.28167783  0.15961378    -0.14900
C126        C  0.19951792  0.25941602  0.14179409     0.35800
C127        C  0.20250662  0.22263515  0.15013898    -0.26300
C128        C  0.17392095  0.20323756  0.16192494    -0.15500
C129        C  0.14301539  0.22481779  0.16896654     0.36800
N130        N  0.11088120  0.20811745  0.17633223    -0.89700
H131        H  0.11939514  0.27816998  0.17329403     0.18000
H132        H  0.22816392  0.21079332  0.14747144     0.17900
N133        N  0.22243330  0.27385325  0.11521556    -0.88800
H134        H  0.09282172  0.21682887  0.15660368     0.35300
H135        H  0.10174533  0.21765188  0.20099713     0.40400
H136        H  0.20688202  0.28467777  0.09425087     0.40000
H137        H  0.23802468  0.25315196  0.10398493     0.34900
C138        C  0.23672056  0.34669433  0.13716000    -0.26800
C139        C  0.22018854  0.32643642  0.16419575    -0.14900
C140        C  0.24231533  0.30573197  0.18866728     0.35800
C141        C  0.27785691  0.30896336  0.18757553    -0.26300
C142        C  0.29510741  0.32854075  0.16126261    -0.15500
C143        C  0.27360176  0.34595306  0.13394253     0.36800
N144        N  0.28794198  0.36004036  0.10147636    -0.89700
H145        H  0.22117540  0.36081754  0.11663935     0.18000
H146        H  0.29336348  0.29244214  0.20605037     0.17900
N147        N  0.23035400  0.28020682  0.21500448    -0.88800
H148        H  0.27947176  0.38721212  0.09870786     0.35300
H149        H  0.27763503  0.34614277  0.07988873     0.40400
H150        H  0.23994187  0.25442301  0.20790665     0.40000
H151        H  0.20363888  0.27876650  0.21694290     0.34900
C152        C  0.19050433  0.36355103  0.26337766    -0.26800
C153        C  0.16973395  0.34055412  0.28323173    -0.14900
C154        C  0.14087578  0.32692650  0.26412765     0.35800
C155        C  0.14185762  0.32597536  0.22610274    -0.26300
C156        C  0.17120892  0.33731353  0.20659864    -0.15500
C157        C  0.19355266  0.36059837  0.22646818     0.36800
N158        N  0.22117953  0.38028907  0.21060600    -0.89700
H159        H  0.20798401  0.38117585  0.27695823     0.18000
H160        H  0.11954066  0.31615057  0.21263640     0.17900
N161        N  0.11066462  0.31402107  0.28212497    -0.88800
H162        H  0.24440559  0.37139678  0.22329235     0.35300
H163        H  0.21735427  0.40770993  0.21668395     0.40400
H164        H  0.11218708  0.31776168  0.30977801     0.40000
H165        H  0.10956142  0.28626951  0.27776535     0.34900
C166        C  0.24266724  0.31797637  0.30087772    -0.26800
C167        C  0.22184016  0.33630424  0.32626662    -0.14900
C168        C  0.24033975  0.36230531  0.34657729     0.35800
C169        C  0.27759146  0.36446843  0.34386297    -0.26300
C170        C  0.29773918  0.34164275  0.32091482    -0.15500
C171        C  0.27861229  0.31905823  0.29819130     0.36800
N172        N  0.29575384  0.29616697  0.27196218    -0.89700
H173        H  0.23104240  0.30343448  0.28023054     0.18000
H174        H  0.29050024  0.38380436  0.36023207     0.17900
N175        N  0.22210513  0.38831147  0.36828890    -0.88800
H176        H  0.27794082  0.28021446  0.25946785     0.35300
H177        H  0.31281871  0.27709530  0.28400354     0.40400
H178        H  0.22740434  0.41416519  0.35852029     0.40000
H179        H  0.23195818  0.38574951  0.39447177     0.34900
C180        C  0.14720590  0.14778997  0.27020993    -0.26800
C181        C  0.17962832  0.15141278  0.28866833    -0.14900
C182        C  0.20858714  0.15472710  0.26516496     0.35800
C183        C  0.20343308  0.16598885  0.22952252    -0.26300
C184        C  0.17363995  0.15701878  0.21018963    -0.15500
C185        C  0.14446264  0.14761189  0.23182037     0.36800
N186        N  0.11124848  0.14120246  0.21610929    -0.89700
H187        H  0.12340850  0.14660582  0.28559625     0.18000
H188        H  0.22552371  0.17631386  0.21530433     0.17900
N189        N  0.24167984  0.13764116  0.27322369    -0.88800
H190        H  0.09276629  0.15944264  0.22699740     0.35300
H191        H  0.10434024  0.11522983  0.22406888     0.40400
H192        H  0.25863128  0.13937484  0.25177365     0.40000
H193        H  0.23780410  0.10990538  0.27518671     0.34900
C194        C  0.23832752  0.12514048  0.34205845    -0.26800
C195        C  0.21748926  0.15688359  0.34813250    -0.14900
C196        C  0.23335188  0.17935409  0.37369345     0.35800
C197        C  0.27028020  0.17853449  0.37645027    -0.26300
C198        C  0.29031641  0.16089423  0.34985574    -0.15500
C199        C  0.27540163  0.12786959  0.33985252     0.36800
N200        N  0.29681819  0.09866961  0.32589663    -0.89700
H201        H  0.22620775  0.10111635  0.33267475     0.18000
H202        H  0.28235633  0.19596206  0.39555214     0.17900
N203        N  0.21313338  0.19960719  0.39918321    -0.88800
H204        H  0.28155554  0.07687783  0.31951039     0.35300
H205        H  0.31384381  0.08959907  0.34641393     0.40400
H206        H  0.22052158  0.19052650  0.42494826     0.40000
H207        H  0.21798511  0.22702071  0.39723734     0.34900
C208        C  0.15674102  0.22903271  0.35684209    -0.26800
C209        C  0.17008154  0.20718393  0.32833042    -0.14900
C210        C  0.17551896  0.22856834  0.29690248     0.35800
C211        C  0.18272850  0.26506069  0.29916187    -0.26300
C212        C  0.17441996  0.28744054  0.32851966    -0.15500
C213        C  0.15699511  0.26798310  0.35648818     0.36800
N214        N  0.13695393  0.28628035  0.38334118    -0.89700
H215        H  0.14340948  0.21725871  0.37896379     0.18000
H216        H  0.18742761  0.27696369  0.27356047     0.17900
N217        N  0.16020465  0.21912020  0.26343299    -0.88800
H218        H  0.11106551  0.27883859  0.38097723     0.35300
H219        H  0.14631947  0.27742048  0.40853444     0.40400
H220        H  0.17431213  0.22958766  0.24199544     0.40000
H221        H  0.13494659  0.23075754  0.26197162     0.34900
C222        C  0.11955322  0.08647681  0.36551862    -0.26800
C223        C  0.10921638  0.09929971  0.39930296    -0.14900
C224        C  0.12522287  0.13033637  0.41191019     0.35800
C225        C  0.14804808  0.14892389  0.38972707    -0.26300
C226        C  0.15505501  0.13978989  0.35360611    -0.15500
C227        C  0.14342625  0.10485164  0.34375157     0.36800
N228        N  0.15801746  0.08565486  0.31384399    -0.89700
H229        H  0.11013028  0.06099789  0.35625493     0.18000
H230        H  0.16127555  0.16982208  0.40260665     0.17900
N231        N  0.11998841  0.14342674  0.44758979    -0.88800
H232        H  0.13758044  0.07830222  0.29714255     0.35300
H233        H  0.17059289  0.06181321  0.32355979     0.40400
H234        H  0.12677867  0.12263489  0.46598437     0.40000
H235        H  0.09378071  0.15154103  0.45066047     0.34900
C236        C  0.14028978  0.33127081  0.11021605    -0.26800
C237        C  0.15799190  0.34752682  0.13899014    -0.14900
C238        C  0.15287725  0.38581282  0.14171187     0.35800
C239        C  0.12800637  0.40488730  0.12039888    -0.26300
C240        C  0.10848742  0.38774099  0.09456331    -0.15500
C241        C  0.11606992  0.35063197  0.08828862     0.36800
N242        N  0.09916201  0.33130581  0.06057340    -0.89700
H243        H  0.14441514  0.30292372  0.10429151     0.18000
H244        H  0.12387862  0.43373623  0.12446352     0.17900
N245        N  0.17251456  0.40630106  0.16597418    -0.88800
H246        H  0.10441932  0.34351663  0.03578742     0.35300
H247        H  0.07229502  0.33241995  0.06515542     0.40400
H248        H  0.15520063  0.41995244  0.18323729     0.40000
H249        H  0.18583436  0.42560148  0.15120283     0.34900
C250        C  0.37957583  0.15228954  0.13140694    -0.26800
C251        C  0.35247406  0.13580035  0.15096493    -0.14900
C252        C  0.35114226  0.09729078  0.14752290     0.35800
C253        C  0.37558126  0.07781989  0.12619364    -0.26300
C254        C  0.40144858  0.09516975  0.10695460    -0.15500
C255        C  0.40360651  0.13286875  0.11029740     0.36800
N256        N  0.43055206  0.15253246  0.09325114    -0.89700
H257        H  0.38268275  0.18108173  0.13102941     0.18000
H258        H  0.37374907  0.04873288  0.12410030     0.17900
N259        N  0.32485395  0.07720512  0.16486773    -0.88800
H260        H  0.42760387  0.15112435  0.06542229     0.35300
H261        H  0.45478453  0.14080253  0.10089467     0.40400
H262        H  0.33699129  0.05666673  0.18064549     0.40000
H263        H  0.31034345  0.06480774  0.14502824     0.34900
C264        C  0.14077258  0.10518064  0.15595648    -0.26800
C265        C  0.14877307  0.14082265  0.14573011    -0.14900
C266        C  0.13535630  0.15368525  0.11188009     0.35800
C267        C  0.11174482  0.13320390  0.09240870    -0.26300
C268        C  0.10208693  0.09886641  0.10436772    -0.15500
C269        C  0.11737770  0.08467887  0.13639497     0.36800
N270        N  0.10959422  0.04924134  0.14930258    -0.89700
H271        H  0.15217511  0.09304483  0.18005140     0.18000
H272        H  0.10140646  0.14420236  0.06721684     0.17900
N273        N  0.14657278  0.18668794  0.09592800    -0.88800
H274        H  0.09929670  0.05169063  0.17514837     0.35300
H275        H  0.13296783  0.03372045  0.15117496     0.40400
H276        H  0.15789356  0.18067527  0.07111548     0.40000
H277        H  0.12459580  0.20382688  0.09125067     0.34900
C278        C  0.37730036  0.38408103  0.40502330    -0.26800
C279        C  0.40053696  0.40777503  0.38939454    -0.14900
C280        C  0.40267676  0.40939036  0.35169527     0.35800
C281        C  0.38227286  0.38699904  0.33061188    -0.26300
C282        C  0.35898611  0.36218832  0.34591269    -0.15500
C283        C  0.35657168  0.36183215  0.38414158     0.36800
N284        N  0.33352177  0.33862058  0.40255436    -0.89700
H285        H  0.37522929  0.38256724  0.43402573     0.18000
H286        H  0.38573296  0.38927174  0.30193122     0.21100
N287        N  0.42665872  0.43264813  0.33446126    -0.88800
H288        H  0.31654585  0.35460710  0.41817401     0.35300
H289        H  0.34839039  0.32149284  0.41982710     0.40400
H290        H  0.41251355  0.45013699  0.31692643     0.40000
H291        H  0.44389084  0.41660603  0.31916964     0.34900
C292        C  0.41270359  0.11905264  0.36145482    -0.26800
C293        C  0.40597873  0.11132655  0.39755155    -0.14900
C294        C  0.37637989  0.12745212  0.41338403     0.35800
C295        C  0.35236752  0.14809342  0.39226044    -0.26300
C296        C  0.35670310  0.15396937  0.35477279    -0.15500
C297        C  0.39049758  0.14260987  0.34081949     0.36800
N298        N  0.40474764  0.15526512  0.30731514    -0.89700
H299        H  0.43698954  0.10888398  0.34983899     0.18000
H300        H  0.33005171  0.15955343  0.40606100     0.17900
N301        N  0.37009942  0.12231720  0.45097935    -0.88800
H302        H  0.42858713  0.16674978  0.31291661     0.35300
H303        H  0.38958535  0.17619876  0.29551656     0.40400
H304        H  0.34602278  0.11040632  0.45391778     0.40000
H305        H  0.36831922  0.14780134  0.46280899     0.34900
C306        C  0.11380144  0.40533596  0.35968461    -0.26800
C307        C  0.11372260  0.39771691  0.39630413    -0.14900
C308        C  0.13863207  0.37202648  0.41024855     0.35800
C309        C  0.16127990  0.35284683  0.38642158    -0.26300
C310        C  0.15836840  0.35680458  0.34858796    -0.15500
C311        C  0.13571144  0.38657584  0.33604269     0.36800
N312        N  0.13499480  0.39999193  0.29974445    -0.89700
H313        H  0.09612916  0.42634146  0.34861661     0.18000
H314        H  0.18077082  0.33364635  0.39740343     0.17900
N315        N  0.14097156  0.36550295  0.44831945    -0.88800
H316        H  0.14181125  0.42709957  0.29958603     0.35300
H317        H  0.10959050  0.39873591  0.28966606     0.40400
H318        H  0.14862759  0.38941129  0.46013388     0.40000
H319        H  0.16052564  0.34572755  0.45422790     0.34900
C320        C  0.34976805  0.38194899  0.13097432    -0.26800
C321        C  0.35760757  0.34457114  0.13647600    -0.14900
C322        C  0.38872648  0.33024676  0.12007094     0.35800
C323        C  0.40928552  0.35275770  0.09886571    -0.26300
C324        C  0.40087120  0.38975716  0.09460678    -0.15500
C325        C  0.37052755  0.40425786  0.11022775     0.36800
N326        N  0.36017461  0.44159492  0.10441387    -0.89700
H327        H  0.32641598  0.39427457  0.14157322     0.18000
H328        H  0.43302750  0.34145353  0.08704498     0.17900
N329        N  0.40102624  0.29353001  0.12581756    -0.88800
H330        H  0.35792414  0.45389387  0.12944309     0.35300
H331        H  0.33551669  0.44273441  0.09227201     0.40400
H332        H  0.42581013  0.29360919  0.13759866     0.40000
H333        H  0.40331711  0.28109360  0.10085564     0.34900
N334        N  0.45744305  0.46177097  0.56686880    -0.06600
N335        N  0.43320650  0.45479360  0.59086661    -0.58700
N336        N  0.04406270  0.42683819  0.53804676    -0.06300
N337        N  0.06891602  0.40192692  0.54488805    -0.60900
N338        N  0.04382834  0.45176468  0.56288668    -0.05900
N339        N  0.06840397  0.44433628  0.58702394    -0.58700
N340        N  0.45702409  0.43801938  0.54087378    -0.05600
N341        N  0.43285216  0.41438616  0.54681349    -0.61200
C342        C  0.41785753  0.42534973  0.57777656     0.95600
C343        C  0.08393247  0.41321336  0.57547473     0.95300
N344        N  0.04036815  0.45346200  0.93328367    -0.06800
N345        N  0.06647093  0.44721978  0.91096126    -0.59300
N346        N  0.46335921  0.43205933  0.95392962    -0.04900
N347        N  0.44092558  0.40708954  0.94626272    -0.60600
N348        N  0.46190458  0.45794320  0.92929064    -0.06800
N349        N  0.43834064  0.45104767  0.90443285    -0.59600
N350        N  0.03920058  0.42742117  0.95759199    -0.04600
N351        N  0.06454803  0.40297941  0.95245988    -0.60600
Mn352      Mn  0.50296844  0.43103625  0.99753031     1.18400
C353        C  0.08145025  0.41563780  0.92338714     0.97700
C354        C  0.42515593  0.41924812  0.91544089     0.98300
N355        N  0.04611641  0.03793025  0.57113051    -0.06800
N356        N  0.06931006  0.04467716  0.59639216    -0.63100
N357        N  0.46772151  0.07181204  0.54450470    -0.05600
N358        N  0.44469154  0.09828990  0.55158432    -0.63800
N359        N  0.46715744  0.04649673  0.56969923    -0.06300
N360        N  0.44360833  0.05516058  0.59421969    -0.63400
N361        N  0.04564522  0.06353933  0.54614049    -0.05200
N362        N  0.06821975  0.08823515  0.55410109    -0.64100
Mn363      Mn  0.00656890  0.99575475  0.57092779     1.10700
C364        C  0.08317964  0.07607032  0.58528949     0.98900
C365        C  0.42968543  0.08753279  0.58261109     0.99000
N366        N  0.46290650  0.03792411  0.93290462    -0.06400
N367        N  0.43880162  0.04553165  0.90838987    -0.61700
N368        N  0.03867233  0.06835664  0.95769019    -0.05700
N369        N  0.06110034  0.09366418  0.95087407    -0.58500
N370        N  0.03956128  0.04411138  0.93215953    -0.07000
N371        N  0.06281643  0.05260970  0.90753572    -0.61300
N372        N  0.46193065  0.06234111  0.95827025    -0.06000
N373        N  0.43705754  0.08728079  0.95117728    -0.58500
Mn374      Mn  0.49969524  0.50170251  0.93030933     1.20200
Mn375      Mn  0.00564252  0.06618267  0.50301301     1.10100
Cl376      Cl  0.00629194  0.99755555  0.50238532    -0.86500
C377        C  0.42265840  0.07622028  0.92005257     0.95900
C378        C  0.07620123  0.08366335  0.91956888     0.95700
C379        C  0.17478126  0.17044113  0.83455881    -0.03000
C380        C  0.17753771  0.33087611  0.83314759    -0.03000
C381        C  0.17540194  0.32844349  0.67593973    -0.03000
C382        C  0.17527883  0.16673707  0.67187281    -0.03000
C383        C  0.32469771  0.16641638  0.83226056    -0.03000
C384        C  0.32745730  0.17143703  0.67023930    -0.03000
C385        C  0.33150524  0.33374886  0.66944396    -0.03000
C386        C  0.33545651  0.32821462  0.82652317    -0.03000
C387        C  0.31923305  0.36472749  0.76774019    -0.26800
C388        C  0.34356476  0.34087627  0.78596550    -0.14900
C389        C  0.37477079  0.33530516  0.76584971     0.35800
C390        C  0.37299555  0.33657287  0.72731569    -0.26300
C391        C  0.34146253  0.34662046  0.70908621    -0.15500
C392        C  0.31892821  0.36923804  0.73050943     0.36800
N393        N  0.30122046  0.40174011  0.71733743    -0.89700
H394        H  0.30010972  0.38085330  0.78249924     0.18000
H395        H  0.39640347  0.33144653  0.71180356     0.17900
N396        N  0.40803227  0.33508628  0.78355073    -0.88800
H397        H  0.28508935  0.39762535  0.69549233     0.35300
H398        H  0.31974857  0.42073035  0.71112475     0.40400
H399        H  0.41038126  0.36031657  0.79541469     0.40000
H400        H  0.42815974  0.33233737  0.76482703     0.34900
C401        C  0.31094177  0.23605075  0.64212901    -0.26800
C402        C  0.33258314  0.21347314  0.66418841    -0.14900
C403        C  0.36101291  0.23078775  0.68071852     0.35800
C404        C  0.36144956  0.26870075  0.68239627    -0.26300
C405        C  0.33775978  0.29142693  0.66270797    -0.15500
C406        C  0.31687624  0.27316707  0.63728571     0.36800
N407        N  0.30026171  0.29272280  0.60776571    -0.89700
H408        H  0.28955469  0.22582366  0.62777126     0.18000
H409        H  0.38247315  0.27909023  0.69731942     0.17900
N410        N  0.38979375  0.21002739  0.69617842    -0.88800
H411        H  0.28649892  0.27534516  0.59157285     0.35300
H412        H  0.31988341  0.30285824  0.59159483     0.40400
H413        H  0.39203561  0.21699143  0.72319262     0.40000
H414        H  0.41253350  0.21735890  0.68305638     0.34900
C415        C  0.35785978  0.14785562  0.77116507    -0.26800
C416        C  0.32986246  0.16498158  0.79011458    -0.14900
C417        C  0.30529554  0.18515822  0.76904726     0.35800
C418        C  0.30745883  0.18750462  0.73203505    -0.26300
C419        C  0.33228113  0.16737406  0.71232792    -0.15500
C420        C  0.35881030  0.14792209  0.73276943     0.36800
N421        N  0.38794889  0.13032818  0.71549709    -0.89700
H422        H  0.37957013  0.13493839  0.78557962     0.18000
H423        H  0.28739444  0.20390144  0.71804680     0.17900
N424        N  0.27557292  0.20144910  0.78547575    -0.88800
H425        H  0.38921164  0.10319241  0.72390014     0.35300
H426        H  0.41065453  0.14205028  0.72449576     0.40400
H427        H  0.25467478  0.18919567  0.77383458     0.40000
H428        H  0.27470440  0.22865098  0.77857375     0.34900
C429        C  0.36263105  0.22256534  0.82634219    -0.26800
C430        C  0.33102579  0.20802437  0.83863458    -0.14900
C431        C  0.30762784  0.23332384  0.85459581     0.35800
C432        C  0.31612935  0.26943323  0.85819822    -0.26300
C433        C  0.34110485  0.28566970  0.83583427    -0.15500
C434        C  0.36741806  0.26048806  0.82360810     0.36800
N435        N  0.40030605  0.27199705  0.81162325    -0.89700
H436        H  0.38318636  0.20430201  0.81664277     0.18000
H437        H  0.29883641  0.28592492  0.87466453     0.17900
N438        N  0.27366226  0.22436766  0.86480283    -0.88800
H439        H  0.40481567  0.26133983  0.78611305     0.35300
H440        H  0.41953537  0.26088616  0.82899547     0.40400
H441        H  0.25638620  0.24060984  0.84923247     0.40000
H442        H  0.27056851  0.23003802  0.89205026     0.34900
C443        C  0.27194312  0.13653494  0.68690112    -0.26800
C444        C  0.28894484  0.15833255  0.66127636    -0.14900
C445        C  0.26897262  0.16350052  0.62873025     0.35800
C446        C  0.23186843  0.16125292  0.62999619    -0.26300
C447        C  0.21454377  0.15396755  0.66268870    -0.15500
C448        C  0.23578761  0.13314172  0.68708101     0.36800
N449        N  0.22115881  0.10709674  0.71082639    -0.89700
H450        H  0.28667308  0.12200887  0.70760118     0.18000
H451        H  0.21684587  0.16538955  0.60552035     0.17900
N452        N  0.28482390  0.16852778  0.59419117    -0.88800
H453        H  0.22808195  0.11334353  0.73692947     0.35300
H454        H  0.23248958  0.08162426  0.70511255     0.40400
H455        H  0.31156773  0.17146108  0.59662140     0.40000
H456        H  0.27413217  0.19223279  0.58215889     0.34900
C457        C  0.14530802  0.26669310  0.69042469    -0.26800
C458        C  0.16857540  0.28696192  0.66993061    -0.14900
C459        C  0.18476612  0.26798381  0.64079531     0.35800
C460        C  0.18586427  0.22999272  0.64003378    -0.26300
C461        C  0.16806593  0.20907938  0.66538302    -0.15500
C462        C  0.14289803  0.22911130  0.68610596     0.36800
N463        N  0.11461523  0.21133476  0.70281456    -0.89700
H464        H  0.12766155  0.27897835  0.70917144     0.18000
H465        H  0.19947153  0.21816622  0.61795093     0.17900
N466        N  0.20052811  0.28718804  0.61179848    -0.88800
H467        H  0.09126922  0.22316501  0.69277271     0.35300
H468        H  0.11558635  0.21630728  0.73028611     0.40400
H469        H  0.18822431  0.28031063  0.58789365     0.40000
H470        H  0.22668406  0.27831589  0.61032312     0.34900
C471        C  0.23127013  0.35321900  0.64396595    -0.26800
C472        C  0.21570213  0.33044247  0.66985382    -0.14900
C473        C  0.23888219  0.30897386  0.69207940     0.35800
C474        C  0.27409092  0.31463092  0.69207108    -0.26300
C475        C  0.29039330  0.33741595  0.66743239    -0.15500
C476        C  0.26810617  0.35605841  0.64178745     0.36800
N477        N  0.28202672  0.37628965  0.61257628    -0.89700
H478        H  0.21520467  0.36815777  0.62448353     0.18000
H479        H  0.29028735  0.29750881  0.70951006     0.17900
N480        N  0.22800030  0.28014190  0.71488801    -0.88800
H481        H  0.27161679  0.40284312  0.61379998     0.35300
H482        H  0.27351984  0.36516932  0.58858935     0.40400
H483        H  0.22227759  0.25780691  0.69964877     0.40000
H484        H  0.20742116  0.28828941  0.73138150     0.34900
C485        C  0.19189455  0.36275129  0.77297327    -0.26800
C486        C  0.16742389  0.34352448  0.79282284    -0.14900
C487        C  0.13558867  0.33967170  0.77313639     0.35800
C488        C  0.13670589  0.33841713  0.73473394    -0.26300
C489        C  0.16824388  0.34276919  0.71575217    -0.15500
C490        C  0.19307020  0.36234861  0.73570463     0.36800
N491        N  0.22009505  0.38213290  0.71920486    -0.89700
H492        H  0.21245040  0.37669029  0.78627085     0.18000
H493        H  0.11286861  0.33450779  0.71991363     0.17900
N494        N  0.10192002  0.34366272  0.78974134    -0.88800
H495        H  0.24358894  0.37205982  0.73037404     0.35300
H496        H  0.21699749  0.40924659  0.72665097     0.40400
H497        H  0.10404316  0.34435117  0.81764028     0.40000
H498        H  0.08687068  0.32189786  0.78274995     0.34900
C499        C  0.23749129  0.31196661  0.81161510    -0.26800
C500        C  0.21878757  0.33329720  0.83634204    -0.14900
C501        C  0.23911809  0.35435323  0.85986811     0.35800
C502        C  0.27631198  0.35432431  0.85647223    -0.26300
C503        C  0.29419954  0.33410556  0.82964910    -0.15500
C504        C  0.27321770  0.31380370  0.80632576     0.36800
N505        N  0.28819222  0.29587970  0.77575154    -0.89700
H506        H  0.22304071  0.29520247  0.79386891     0.18000
H507        H  0.29104326  0.36936721  0.87557976     0.17900
N508        N  0.22298154  0.37411429  0.88846975    -0.88800
H509        H  0.26901395  0.28335133  0.76159753     0.35300
H510        H  0.30593000  0.27523732  0.78337124     0.40400
H511        H  0.22959341  0.40116772  0.88581659     0.40000
H512        H  0.23356004  0.36398268  0.91270575     0.34900
C513        C  0.14701939  0.14647387  0.77357852    -0.26800
C514        C  0.16907280  0.16999108  0.79206364    -0.14900
C515        C  0.18864311  0.19301875  0.76965604     0.35800
C516        C  0.19331636  0.18554794  0.73352158    -0.26300
C517        C  0.17172100  0.16290091  0.71429235    -0.15500
C518        C  0.14724250  0.14364443  0.73525261     0.36800
N519        N  0.12179981  0.12230379  0.71848361    -0.89700
H520        H  0.12846957  0.13104688  0.78838361     0.18000
H521        H  0.21167916  0.20144878  0.71888913     0.17900
N522        N  0.19881703  0.22775489  0.78152030    -0.88800
H523        H  0.09707182  0.13257392  0.72575402     0.35300
H524        H  0.12485029  0.09583790  0.72867308     0.40400
H525        H  0.17931297  0.24615778  0.77220732     0.40000
H526        H  0.22026285  0.23610035  0.76732489     0.34900
C527        C  0.23206628  0.13533519  0.81525782    -0.26800
C528        C  0.21356531  0.15485712  0.84199384    -0.14900
C529        C  0.23229465  0.15533137  0.87517135     0.35800
C530        C  0.26967628  0.15425157  0.87461914    -0.26300
C531        C  0.28741786  0.15097157  0.84139617    -0.15500
C532        C  0.26857759  0.13095489  0.81631873     0.36800
N533        N  0.28611881  0.10655599  0.79228776    -0.89700
H534        H  0.21841459  0.12338594  0.79345030     0.18000
H535        H  0.28383539  0.16007267  0.89885935     0.17900
N536        N  0.21411688  0.15567156  0.90871448    -0.88800
H537        H  0.27967447  0.11462459  0.76614827     0.35300
H538        H  0.27659177  0.08078455  0.79665577     0.40400
H539        H  0.22039671  0.13109499  0.92192886     0.40000
H540        H  0.22387867  0.17594142  0.92473246     0.34900
C541        C  0.19153082  0.23091494  0.86641655    -0.26800
C542        C  0.16889747  0.21173371  0.84459873    -0.14900
C543        C  0.14036091  0.23292808  0.82989793     0.35800
C544        C  0.14242995  0.27091040  0.82655625    -0.26300
C545        C  0.17078229  0.28936021  0.84067749    -0.15500
C546        C  0.19089353  0.26895587  0.86660174     0.36800
N547        N  0.20900826  0.28688031  0.89456364    -0.89700
H548        H  0.20939412  0.21752741  0.88442262     0.18000
H549        H  0.12178060  0.28473877  0.81239502     0.17900
N550        N  0.11030821  0.21588023  0.81627267    -0.88800
H551        H  0.19995441  0.27757772  0.91933606     0.35300
H552        H  0.23559742  0.28029477  0.89309031     0.40400
H553        H  0.10684318  0.22381012  0.78944926     0.40000
H554        H  0.08860495  0.22585738  0.83046009     0.34900
C555        C  0.12368763  0.08897354  0.87382235    -0.26800
C556        C  0.10171876  0.10568083  0.89929345    -0.14900
C557        C  0.10438065  0.14331359  0.90440386     0.35800
C558        C  0.12738912  0.16302949  0.88356834    -0.26300
C559        C  0.14900976  0.14698857  0.85679833    -0.15500
C560        C  0.14763890  0.10874141  0.85347979     0.36800
N561        N  0.17080792  0.08938639  0.82987739    -0.89700
H562        H  0.12278166  0.06002203  0.87001233     0.18000
H563        H  0.12805324  0.19146735  0.88954512     0.17900
N564        N  0.08376640  0.16291566  0.93021161    -0.88800
H565        H  0.15591072  0.07490767  0.81192758     0.35300
H566        H  0.18584819  0.07065376  0.84529120     0.40400
H567        H  0.09006153  0.15290787  0.95592852     0.40000
H568        H  0.05736770  0.15955584  0.92475058     0.34900
C569        C  0.13053946  0.33427446  0.62341293    -0.26800
C570        C  0.15248937  0.35141852  0.64829981    -0.14900
C571        C  0.15172964  0.38991362  0.64691895     0.35800
C572        C  0.13022034  0.40923629  0.62204898    -0.26300
C573        C  0.10933575  0.39149584  0.59757050    -0.15500
C574        C  0.11024412  0.35341691  0.59794174     0.36800
N575        N  0.08986473  0.33298481  0.57378911    -0.89700
H576        H  0.12804402  0.30536405  0.62295103     0.18000
H577        H  0.12963266  0.43858871  0.62222045     0.17900
N578        N  0.17230978  0.41002201  0.67086157    -0.88800
H579        H  0.09745260  0.33869316  0.54745132     0.35300
H580        H  0.06347948  0.34027127  0.57712663     0.40400
H581        H  0.15557054  0.42705123  0.68569521     0.40000
H582        H  0.18852770  0.42623236  0.65559486     0.34900
C583        C  0.37753388  0.16660455  0.62348052    -0.26800
C584        C  0.35464167  0.14906541  0.64740079    -0.14900
C585        C  0.35623142  0.11055840  0.64749954     0.35800
C586        C  0.38062519  0.09144641  0.62605446    -0.26300
C587        C  0.40344335  0.10935977  0.60324262    -0.15500
C588        C  0.40151452  0.14756174  0.60196397     0.36800
N589        N  0.42408090  0.16817374  0.57979901    -0.89700
H590        H  0.37713346  0.19568759  0.62038170     0.18000
H591        H  0.38151365  0.06210156  0.62718934     0.17900
N592        N  0.33328421  0.09032152  0.66940999    -0.88800
H593        H  0.41933137  0.16236934  0.55289022     0.35300
H594        H  0.44997550  0.16089917  0.58637750     0.40400
H595        H  0.34829035  0.07288620  0.68622489     0.40000
H596        H  0.31859876  0.07440491  0.65255993     0.34900
C597        C  0.15321410  0.10549472  0.65133920    -0.26800
C598        C  0.14992248  0.14382767  0.64898898    -0.14900
C599        C  0.12449636  0.15858890  0.62378984     0.35800
C600        C  0.10406970  0.13569855  0.60349383    -0.26300
C601        C  0.10694997  0.09804600  0.60712358    -0.15500
C602        C  0.13173387  0.08282562  0.63151803     0.36800
N603        N  0.13569517  0.04431872  0.63590876    -0.89700
H604        H  0.17216813  0.09269590  0.66940086     0.18000
H605        H  0.08503856  0.14793785  0.58490048     0.17900
N606        N  0.11860462  0.19668170  0.61776698    -0.88800
H607        H  0.13149421  0.03788872  0.66294618     0.35300
H608        H  0.16146545  0.03651894  0.62977861     0.40400
H609        H  0.12319126  0.20254382  0.59067561     0.40000
H610        H  0.09245711  0.20348167  0.62325581     0.34900
C611        C  0.39706767  0.36103749  0.90337598    -0.26800
C612        C  0.39994320  0.39771055  0.89457230    -0.14900
C613        C  0.37918776  0.41233479  0.86612942     0.35800
C614        C  0.35749644  0.38981036  0.84634042    -0.26300
C615        C  0.35629298  0.35201893  0.85319300    -0.15500
C616        C  0.37579265  0.33831876  0.88374280     0.36800
N617        N  0.37400688  0.30169500  0.89634817    -0.89700
H618        H  0.41197288  0.34933245  0.92578509     0.18000
H619        H  0.34211133  0.40219155  0.82473660     0.21100
N620        N  0.37976721  0.45012406  0.85721173    -0.88800
H621        H  0.36494880  0.30193037  0.92279498     0.35300
H622        H  0.39917551  0.28968946  0.89634629     0.40400
H623        H  0.35438228  0.46124100  0.85951969     0.40000
H624        H  0.38727490  0.45267982  0.83036446     0.34900
C625        C  0.38467162  0.13153151  0.91093443    -0.26800
C626        C  0.39607832  0.09752955  0.89880148    -0.14900
C627        C  0.38254022  0.08502161  0.86617252     0.35800
C628        C  0.35950102  0.10743161  0.84566743    -0.26300
C629        C  0.35082339  0.14327571  0.85558072    -0.15500
C630        C  0.36171414  0.15398770  0.89049152     0.36800
N631        N  0.34864982  0.18682482  0.90648484    -0.89700
H632        H  0.39343281  0.14092719  0.93675144     0.18000
H633        H  0.34851685  0.09644970  0.82160200     0.17900
N634        N  0.39188174  0.04951452  0.85357965    -0.88800
H635        H  0.36980336  0.20264215  0.91251121     0.35300
H636        H  0.33632549  0.18028620  0.93057818     0.40400
H637        H  0.40329461  0.05220183  0.82828084     0.40000
H638        H  0.36903731  0.03539405  0.85054800     0.34900
C639        C  0.12880827  0.41248218  0.87795338    -0.26800
C640        C  0.10964002  0.39522603  0.90464878    -0.14900
C641        C  0.11610831  0.35806350  0.91134592     0.35800
C642        C  0.13895120  0.33837482  0.88934867    -0.26300
C643        C  0.15677096  0.35463576  0.86042633    -0.15500
C644        C  0.15265894  0.39289732  0.85642153     0.36800
N645        N  0.17216275  0.41223008  0.83033086    -0.89700
H646        H  0.12494648  0.44139367  0.87330948     0.18000
H647        H  0.14134944  0.30976641  0.89524562     0.17900
N648        N  0.09856653  0.33951737  0.93963364    -0.88800
H649        H  0.18621589  0.43166995  0.84361357     0.35300
H650        H  0.15453955  0.42582795  0.81280166     0.40400
H651        H  0.11743944  0.32759428  0.95692651     0.40000
H652        H  0.08452864  0.31885740  0.92830706     0.34900
C653        C  0.34721814  0.39470670  0.64105487    -0.26800
C654        C  0.35245266  0.35658185  0.64175361    -0.14900
C655        C  0.37972409  0.34215008  0.61916162     0.35800
C656        C  0.39895525  0.36525238  0.59743437    -0.26300
C657        C  0.39393628  0.40281060  0.59848341    -0.15500
C658        C  0.36773508  0.41767755  0.62043191     0.36800
N659        N  0.36142380  0.45611712  0.62151400    -0.89700
H660        H  0.32636916  0.40727224  0.65576918     0.18000
H661        H  0.41953589  0.35349022  0.58088838     0.17900
N662        N  0.38978702  0.30444363  0.61856585    -0.88800
H663        H  0.36430330  0.46420508  0.64811460     0.35300
H664        H  0.33554690  0.46193014  0.61375489     0.40400
H665        H  0.41595844  0.30130139  0.62641234     0.40000
H666        H  0.38753650  0.29537465  0.59222561     0.34900
N667        N  0.46569538  0.94863336  0.06706001    -0.06600
N668        N  0.44277272  0.94142841  0.09229491    -0.58700
N669        N  0.04404152  0.92984200  0.04080777    -0.06300
N670        N  0.07026718  0.90601985  0.04660617    -0.60900
N671        N  0.04323338  0.95455592  0.06583882    -0.05900
N672        N  0.06880752  0.94811823  0.08906352    -0.58700
N673        N  0.46514202  0.92418324  0.04176059    -0.05600
N674        N  0.44204269  0.89971446  0.04953128    -0.61200
C675        C  0.42794592  0.91099418  0.08096881     0.95600
C676        C  0.08579844  0.91802238  0.07665338     0.95300
N677        N  0.04742768  0.95624528  0.43597590    -0.06800
N678        N  0.07323183  0.95118618  0.41327705    -0.59300
N679        N  0.46621050  0.93568719  0.45987435    -0.04900
N680        N  0.44214023  0.91230602  0.45217375    -0.60600
N681        N  0.46703387  0.96109451  0.43477739    -0.06800
N682        N  0.44375210  0.95539453  0.40952951    -0.59600
N683        N  0.04773737  0.92997674  0.46011311    -0.04600
N684        N  0.07386061  0.90633146  0.45427607    -0.60600
Mn685      Mn  0.50605709  0.93260745  0.50316138     1.18400
C686        C  0.08973704  0.92016361  0.42505764     0.97700
C687        C  0.42820322  0.92502361  0.42067975     0.98300
N688        N  0.04020818  0.53642518  0.06990141    -0.06800
N689        N  0.06216196  0.54416208  0.09604675    -0.63100
N690        N  0.45620760  0.56626206  0.04310366    -0.05600
N691        N  0.43309673  0.59196708  0.05217121    -0.63800
N692        N  0.45663982  0.53976031  0.06712571    -0.06300
N693        N  0.43386491  0.54692398  0.09284230    -0.63400
N694        N  0.03989163  0.56211546  0.04494839    -0.05200
N695        N  0.06157874  0.58748695  0.05365265    -0.64100
Mn696      Mn  0.00019275  0.49402695  0.06906892     1.10700
C697        C  0.07565291  0.57604245  0.08551119     0.98900
C698        C  0.41920917  0.57955900  0.08316679     0.99000
N699        N  0.46331219  0.55155020  0.43452897    -0.06400
N700        N  0.44084050  0.56171541  0.40912831    -0.61700
N701        N  0.04191969  0.56462692  0.45529910    -0.05700
N702        N  0.06470266  0.58962456  0.44878520    -0.58500
N703        N  0.04276477  0.54043551  0.42972861    -0.07000
N704        N  0.06620348  0.54872489  0.40533436    -0.61300
N705        N  0.46308658  0.57538716  0.46047700    -0.06000
N706        N  0.44020501  0.60215891  0.45336039    -0.58500
Mn707      Mn  0.50768483  0.00167777  0.43418994     1.20200
Mn708      Mn  0.99988529  0.56470163  0.00171056     1.10100
Cl709      Cl  0.99997563  0.49582602  0.00049997    -0.86500
C710        C  0.42641535  0.59297017  0.42149738     0.95900
C711        C  0.07994070  0.57944781  0.41764409     0.95700
C712        C  0.17702924  0.66686748  0.33165765    -0.03000
C713        C  0.17906909  0.83305569  0.32831910    -0.03000
C714        C  0.17730906  0.82570771  0.17160765    -0.03000
C715        C  0.17230579  0.66470941  0.16902927    -0.03000
C716        C  0.32168639  0.67862499  0.33761718    -0.03000
C717        C  0.31964319  0.66352164  0.17483427    -0.03000
C718        C  0.33485609  0.82572710  0.17329035    -0.03000
C719        C  0.33729995  0.83767974  0.33077195    -0.03000
C720        C  0.33072853  0.86990343  0.26905540    -0.26800
C721        C  0.34903555  0.84281834  0.28976497    -0.14900
C722        C  0.37533168  0.82351029  0.27001214     0.35800
C723        C  0.37454861  0.82460067  0.23182522    -0.26300
C724        C  0.34491270  0.83831968  0.21285744    -0.15500
C725        C  0.32577140  0.86606373  0.23196417     0.36800
N726        N  0.30064274  0.89034494  0.21476045    -0.89700
H727        H  0.31544865  0.89106252  0.28231332     0.18000
H728        H  0.39739368  0.81521403  0.21735798     0.17900
N729        N  0.40470738  0.80608481  0.28731581    -0.88800
H730        H  0.30799670  0.91687779  0.21899751     0.35300
H731        H  0.27675446  0.88717932  0.22749666     0.40400
H732        H  0.42713505  0.81861894  0.27856191     0.40000
H733        H  0.40635487  0.77917784  0.27893902     0.34900
C734        C  0.30706509  0.72955690  0.14771293    -0.26800
C735        C  0.32726672  0.70528543  0.16929736    -0.14900
C736        C  0.35635008  0.72046608  0.18678969     0.35800
C737        C  0.36032246  0.75816064  0.18704915    -0.26300
C738        C  0.33857147  0.78278711  0.16687035    -0.15500
C739        C  0.31601683  0.76573790  0.14201807     0.36800
N740        N  0.30088352  0.78466196  0.11132115    -0.89700
H741        H  0.28481223  0.72103143  0.13377963     0.18000
H742        H  0.38225701  0.76624312  0.20187517     0.17900
N743        N  0.38204601  0.69756372  0.20504665    -0.88800
H744        H  0.30689235  0.76920212  0.08871528     0.35300
H745        H  0.31311743  0.80888365  0.10664711     0.40400
H746        H  0.38307799  0.70534485  0.23190889     0.40000
H747        H  0.40633305  0.70192165  0.19351142     0.34900
C748        C  0.33867772  0.64153218  0.27851779    -0.26800
C749        C  0.32036585  0.67102674  0.29537336    -0.14900
C750        C  0.29752330  0.69143898  0.27216121     0.35800
C751        C  0.29720818  0.68586092  0.23488002    -0.26300
C752        C  0.31979874  0.66075803  0.21748777    -0.15500
C753        C  0.34111796  0.63819696  0.24054184     0.36800
N754        N  0.36635947  0.61281286  0.22641419    -0.89700
H755        H  0.35250301  0.62102594  0.29456019     0.18000
H756        H  0.27905776  0.70226000  0.21855630     0.17900
N757        N  0.27210371  0.71616182  0.28644954    -0.88800
H758        H  0.36168518  0.58732748  0.23750063     0.35300
H759        H  0.39098658  0.62001570  0.23524057     0.40400
H760        H  0.25307987  0.70085047  0.29855178     0.40000
H761        H  0.25945816  0.73102422  0.26601357     0.34900
C762        C  0.36261249  0.73453564  0.34507918    -0.26800
C763        C  0.32796448  0.72098595  0.34468175    -0.14900
C764        C  0.30199175  0.74836138  0.35423078     0.35800
C765        C  0.31169285  0.78278392  0.36348103    -0.26300
C766        C  0.34085157  0.79750973  0.34717296    -0.15500
C767        C  0.36937092  0.77215452  0.34657935     0.36800
N768        N  0.40430919  0.78241261  0.35420104    -0.89700
H769        H  0.38525278  0.71675744  0.34655023     0.18000
H770        H  0.29152663  0.80017418  0.37507150     0.17900
N771        N  0.26532995  0.74543866  0.34992807    -0.88800
H772        H  0.41203237  0.76991475  0.37850428     0.35300
H773        H  0.40485190  0.81019972  0.35852015     0.40400
H774        H  0.25701941  0.76386836  0.33007451     0.40000
H775        H  0.25347389  0.75471921  0.37339939     0.34900
C776        C  0.26390368  0.62651257  0.18345540    -0.26800
C777        C  0.28217457  0.65125368  0.16172669    -0.14900
C778        C  0.26497158  0.65886111  0.12784598     0.35800
C779        C  0.22782562  0.65737153  0.12594046    -0.26300
C780        C  0.20880633  0.64612431  0.15639369    -0.15500
C781        C  0.22820722  0.62072454  0.17810672     0.36800
N782        N  0.21108325  0.59358589  0.19869363    -0.89700
H783        H  0.27696654  0.61206265  0.20540321     0.18000
H784        H  0.21425646  0.66972788  0.10307955     0.17900
N785        N  0.28344441  0.66704361  0.09540345    -0.88800
H786        H  0.22906394  0.57900248  0.21505261     0.35300
H787        H  0.20183429  0.57503860  0.18042037     0.40400
H788        H  0.30993957  0.66938502  0.10038043     0.40000
H789        H  0.27368150  0.69173692  0.08463977     0.34900
C790        C  0.13918991  0.76808258  0.16254403    -0.26800
C791        C  0.17087399  0.78565356  0.15837612    -0.14900
C792        C  0.19806551  0.76316244  0.14414144     0.35800
C793        C  0.19966900  0.72634536  0.15316214    -0.26300
C794        C  0.16975287  0.70726424  0.16166633    -0.15500
C795        C  0.13830095  0.72944654  0.16421717     0.36800
N796        N  0.10539723  0.71344597  0.16893863    -0.89700
H797        H  0.11531026  0.78417142  0.16651338     0.18000
H798        H  0.22536856  0.71407959  0.15447476     0.17900
N799        N  0.22408529  0.77730995  0.12084099    -0.88800
H800        H  0.08959780  0.72113215  0.14695023     0.35300
H801        H  0.09380228  0.72480614  0.19172834     0.40400
H802        H  0.21132112  0.78644189  0.09743701     0.40000
H803        H  0.24071884  0.75626085  0.11210696     0.34900
C804        C  0.23583758  0.85494296  0.14873730    -0.26800
C805        C  0.21823786  0.83017760  0.17128081    -0.14900
C806        C  0.24010302  0.80780055  0.19460074     0.35800
C807        C  0.27576515  0.81115806  0.19495267    -0.26300
C808        C  0.29390103  0.83277215  0.17099671    -0.15500
C809        C  0.27310140  0.85548196  0.14739226     0.36800
N810        N  0.28900231  0.87848564  0.12161091    -0.89700
H811        H  0.22110222  0.87354565  0.13131884     0.18000
H812        H  0.29077287  0.79233284  0.21177141     0.17900
N813        N  0.22813944  0.77930960  0.21756021    -0.88800
H814        H  0.28024872  0.90514677  0.12633210     0.35300
H815        H  0.28039302  0.87146155  0.09606965     0.40400
H816        H  0.24034466  0.75507974  0.20920820     0.40000
H817        H  0.20184767  0.77506552  0.21576392     0.34900
C818        C  0.18012898  0.86724743  0.26676452    -0.26800
C819        C  0.16659273  0.83935546  0.28821316    -0.14900
C820        C  0.14352203  0.81642879  0.27030391     0.35800
C821        C  0.14698375  0.81140588  0.23337877    -0.26300
C822        C  0.16842200  0.83326661  0.21211421    -0.15500
C823        C  0.18061603  0.86474879  0.22915080     0.36800
N824        N  0.19376751  0.89402428  0.20831392    -0.89700
H825        H  0.19295725  0.88939280  0.27930213     0.18000
H826        H  0.13140105  0.79106823  0.22228146     0.17900
N827        N  0.11478996  0.80017608  0.28803205    -0.88800
H828        H  0.21909755  0.89842554  0.21699583     0.35300
H829        H  0.17845210  0.91735230  0.21370107     0.40400
H830        H  0.11135015  0.81031264  0.31373834     0.40000
H831        H  0.11932048  0.77216396  0.28961474     0.34900
C832        C  0.24105339  0.82997104  0.30150268    -0.26800
C833        C  0.21990287  0.84308894  0.32953398    -0.14900
C834        C  0.23833520  0.86669816  0.35288990     0.35800
C835        C  0.27579472  0.86797077  0.35179693    -0.26300
C836        C  0.29612796  0.84558809  0.32861589    -0.15500
C837        C  0.27696095  0.82584954  0.30333405     0.36800
N838        N  0.29373934  0.80161341  0.27816736    -0.89700
H839        H  0.23021802  0.82264180  0.27622337     0.18000
H840        H  0.28862663  0.88576190  0.36990498     0.17900
N841        N  0.22014709  0.89186614  0.37553896    -0.88800
H842        H  0.27495626  0.78695739  0.26547701     0.35300
H843        H  0.30880606  0.78154580  0.29136471     0.40400
H844        H  0.22657202  0.91801843  0.36767048     0.40000
H845        H  0.22911396  0.88738053  0.40186541     0.34900
C846        C  0.14243485  0.65769394  0.27193597    -0.26800
C847        C  0.17530391  0.65580654  0.29009822    -0.14900
C848        C  0.20449687  0.65355915  0.26642141     0.35800
C849        C  0.20059003  0.66525054  0.23078220    -0.26300
C850        C  0.16957812  0.66168939  0.21158800    -0.15500
C851        C  0.13938546  0.65753157  0.23354701     0.36800
N852        N  0.10549955  0.65465934  0.21802300    -0.89700
H853        H  0.11879779  0.65938181  0.28770648     0.18000
H854        H  0.22347392  0.67440719  0.21726652     0.17900
N855        N  0.23657240  0.63489965  0.27540484    -0.88800
H856        H  0.08901220  0.67478996  0.22897919     0.35300
H857        H  0.09601029  0.62979171  0.22631008     0.40400
H858        H  0.25507707  0.63758299  0.25543140     0.40000
H859        H  0.23146270  0.60734183  0.27556681     0.34900
C860        C  0.23478833  0.62776387  0.34439373    -0.26800
C861        C  0.21386578  0.65936658  0.35009204    -0.14900
C862        C  0.22886767  0.68177995  0.37616291     0.35800
C863        C  0.26559195  0.68191412  0.37902453    -0.26300
C864        C  0.28596358  0.66426080  0.35270959    -0.15500
C865        C  0.27169368  0.63093292  0.34260756     0.36800
N866        N  0.29361939  0.60187843  0.32911699    -0.89700
H867        H  0.22302347  0.60355089  0.33507694     0.18000
H868        H  0.27729460  0.69935884  0.39836373     0.17900
N869        N  0.20782599  0.70127360  0.40156718    -0.88800
H870        H  0.27867363  0.57993189  0.32244254     0.35300
H871        H  0.31030251  0.59296199  0.34998163     0.40400
H872        H  0.21496422  0.69194954  0.42732488     0.40000
H873        H  0.21237820  0.72879867  0.40003721     0.34900
C874        C  0.14998726  0.73145278  0.35671857    -0.26800
C875        C  0.16921628  0.71032867  0.33130967    -0.14900
C876        C  0.18458677  0.73222605  0.30501581     0.35800
C877        C  0.19280474  0.76754020  0.31145408    -0.26300
C878        C  0.17602781  0.78993915  0.33660691    -0.15500
C879        C  0.15261742  0.77003187  0.35966599     0.36800
N880        N  0.12976943  0.78643350  0.38552803    -0.89700
H881        H  0.13091585  0.71929829  0.37351173     0.18000
H882        H  0.20537265  0.77875273  0.28910443     0.17900
N883        N  0.18081735  0.72433395  0.26801837    -0.88800
H884        H  0.11428984  0.80753370  0.37425796     0.35300
H885        H  0.14388901  0.79380332  0.40802631     0.40400
H886        H  0.20422963  0.72862509  0.25513751     0.40000
H887        H  0.16147757  0.74136210  0.25630846     0.34900
C888        C  0.11844882  0.58815269  0.36466423    -0.26800
C889        C  0.10578941  0.60096237  0.39752849    -0.14900
C890        C  0.11884538  0.63355168  0.41037624     0.35800
C891        C  0.14214381  0.65287227  0.38951762    -0.26300
C892        C  0.15167041  0.64309386  0.35424276    -0.15500
C893        C  0.14195298  0.60770772  0.34382621     0.36800
N894        N  0.15749170  0.58978349  0.31363795    -0.89700
H895        H  0.11078236  0.56205817  0.35520606     0.18000
H896        H  0.15294273  0.67551019  0.40230233     0.17900
N897        N  0.10956042  0.64795376  0.44471037    -0.88800
H898        H  0.13757354  0.58270227  0.29616712     0.35300
H899        H  0.17038987  0.56590225  0.32282624     0.40400
H900        H  0.11631242  0.62872616  0.46469359     0.40000
H901        H  0.08272493  0.65402896  0.44509847     0.34900
C902        C  0.16039705  0.85362979  0.10964496    -0.26800
C903        C  0.15443508  0.85255430  0.14717092    -0.14900
C904        C  0.12460136  0.87374951  0.15958929     0.35800
C905        C  0.10495506  0.89591997  0.13587300    -0.26300
C906        C  0.11101340  0.89621650  0.09913275    -0.15500
C907        C  0.13901076  0.87458884  0.08571910     0.36800
N908        N  0.14670211  0.87371598  0.04814127    -0.89700
H909        H  0.18171816  0.83776902  0.09846393     0.18000
H910        H  0.08285656  0.91152847  0.14649281     0.17900
N911        N  0.11178212  0.87201745  0.19561638    -0.88800
H912        H  0.15035269  0.90020885  0.03912254     0.35300
H913        H  0.12532521  0.86375345  0.03456792     0.40400
H914        H  0.08632027  0.86298868  0.19506808     0.40000
H915        H  0.11113718  0.89807679  0.20624033     0.34900
C916        C  0.37250348  0.65756787  0.13121325    -0.26800
C917        C  0.34810271  0.64017991  0.15373965    -0.14900
C918        C  0.34814576  0.60160056  0.15139482     0.35800
C919        C  0.37166961  0.58276216  0.12862546    -0.26300
C920        C  0.39482608  0.60086926  0.10643576    -0.15500
C921        C  0.39511499  0.63886299  0.10809587     0.36800
N922        N  0.41832788  0.65969599  0.08689612    -0.89700
H923        H  0.37382097  0.68657848  0.12934974     0.18000
H924        H  0.37111580  0.55349157  0.12768317     0.17900
N925        N  0.32390992  0.58084824  0.17111050    -0.88800
H926        H  0.41240950  0.65657247  0.05973768     0.35300
H927        H  0.44397811  0.65035017  0.09207376     0.40400
H928        H  0.33780424  0.56087511  0.18609496     0.40000
H929        H  0.30849105  0.56761356  0.15263242     0.34900
C930        C  0.13455436  0.60932077  0.16109932    -0.26800
C931        C  0.14438694  0.64358647  0.14808561    -0.14900
C932        C  0.13290122  0.65358082  0.11272443     0.35800
C933        C  0.11042638  0.63149197  0.09354028    -0.26300
C934        C  0.09984324  0.59813050  0.10738242    -0.15500
C935        C  0.11252101  0.58701262  0.14160120     0.36800
N936        N  0.10351125  0.55286068  0.15679717    -0.89700
H937        H  0.14395281  0.59940208  0.18695584     0.18000
H938        H  0.10177552  0.64044365  0.06700553     0.17900
N939        N  0.14456187  0.68563699  0.09527488    -0.88800
H940        H  0.09127787  0.55766629  0.18140608     0.35300
H941        H  0.12659110  0.53753023  0.16182673     0.40400
H942        H  0.15710498  0.67810697  0.07149701     0.40000
H943        H  0.12265237  0.70210316  0.08838659     0.34900
C944        C  0.37805668  0.88391093  0.41427324    -0.26800
C945        C  0.40325114  0.90524989  0.39828987    -0.14900
C946        C  0.40533382  0.90647799  0.36065295     0.35800
C947        C  0.38272904  0.88662307  0.33983196    -0.26300
C948        C  0.35763786  0.86391155  0.35515641    -0.15500
C949        C  0.35527634  0.86361866  0.39338837     0.36800
N950        N  0.33048317  0.84216600  0.41156957    -0.89700
H951        H  0.37611424  0.88273654  0.44329304     0.18000
H952        H  0.38648140  0.88878719  0.31121220     0.21100
N953        N  0.43174749  0.92647460  0.34310800    -0.88800
H954        H  0.31479696  0.85926769  0.42743248     0.35300
H955        H  0.34412235  0.82379684  0.42865336     0.40400
H956        H  0.41949224  0.94526260  0.32541798     0.40000
H957        H  0.44718644  0.90841679  0.32800127     0.34900
C958        C  0.40899067  0.62523530  0.36560575    -0.26800
C959        C  0.40124170  0.61577720  0.40097216    -0.14900
C960        C  0.37015131  0.62891578  0.41634746     0.35800
C961        C  0.34622591  0.64909514  0.39532035    -0.26300
C962        C  0.35179614  0.65700082  0.35836870    -0.15500
C963        C  0.38631362  0.64789278  0.34495992     0.36800
N964        N  0.40048920  0.66163704  0.31180726    -0.89700
H965        H  0.43407485  0.61673778  0.35454885     0.18000
H966        H  0.32297622  0.65856709  0.40887873     0.17900
N967        N  0.36159347  0.62129459  0.45305779    -0.88800
H968        H  0.42387755  0.67385122  0.31779722     0.35300
H969        H  0.38479149  0.68224999  0.30014749     0.40400
H970        H  0.38017069  0.63254818  0.46964720     0.40000
H971        H  0.36251386  0.59321517  0.45712530     0.34900
C972        C  0.10904860  0.90295992  0.36550233    -0.26800
C973        C  0.11446919  0.89953465  0.40227575    -0.14900
C974        C  0.14099683  0.87545806  0.41544706     0.35800
C975        C  0.16189627  0.85560773  0.39083892    -0.26300
C976        C  0.15584418  0.85757513  0.35330635    -0.15500
C977        C  0.12791079  0.88205879  0.34112615     0.36800
N978        N  0.11675421  0.88593354  0.30444865    -0.89700
H979        H  0.08816593  0.92092879  0.35513000     0.18000
H980        H  0.18291898  0.83775450  0.40102077     0.17900
N981        N  0.14656556  0.87112078  0.45347449    -0.88800
H982        H  0.11874234  0.91298510  0.29634572     0.35300
H983        H  0.09056691  0.87931347  0.30266412     0.40400
H984        H  0.15457360  0.89583480  0.46320570     0.40000
H985        H  0.16691612  0.85204503  0.45872686     0.34900
C986        C  0.35899364  0.88523742  0.14916367    -0.26800
C987        C  0.35781534  0.84717983  0.14597399    -0.14900
C988        C  0.38082095  0.83101123  0.11979704     0.35800
C989        C  0.40185265  0.85265436  0.09815680    -0.26300
C990        C  0.40285736  0.89006968  0.10249720    -0.15500
C991        C  0.38123598  0.90637908  0.12848365     0.36800
N992        N  0.38155789  0.94462379  0.13406971    -0.89700
H993        H  0.34284487  0.89931781  0.16823550     0.18000
H994        H  0.41883988  0.83954266  0.07865895     0.17900
N995        N  0.38429918  0.79270059  0.11488850    -0.88800
H996        H  0.38831854  0.94878378  0.16088477     0.35300
H997        H  0.35627625  0.95556328  0.12984715     0.40400
H998        H  0.41026607  0.78429591  0.11982407     0.40000
H999        H  0.37836963  0.78715850  0.08814370     0.34900
N1000       N  0.46553666  0.96071048  0.56987812    -0.06600
N1001       N  0.44140890  0.95419303  0.59414690    -0.58700
N1002       N  0.04722013  0.92883161  0.54279973    -0.06300
N1003       N  0.07312055  0.90484736  0.54731138    -0.60900
N1004       N  0.04724150  0.95292232  0.56835706    -0.05900
N1005       N  0.07313554  0.94564317  0.59105235    -0.58700
N1006       N  0.46582297  0.93577885  0.54498050    -0.05600
N1007       N  0.44220263  0.91179635  0.55192613    -0.61200
C1008       C  0.42683609  0.92375437  0.58235796     0.95600
C1009       C  0.08900050  0.91555181  0.57744300     0.95300
N1010       N  0.04181511  0.95832028  0.93208036    -0.06800
N1011       N  0.06572946  0.95137067  0.90747502    -0.59300
N1012       N  0.46298359  0.92763624  0.95592888    -0.04900
N1013       N  0.43836312  0.90469260  0.94933669    -0.60600
N1014       N  0.46293762  0.95317095  0.93089271    -0.06800
N1015       N  0.43799711  0.94810066  0.90694441    -0.59600
N1016       N  0.04235385  0.93252128  0.95680464    -0.04600
N1017       N  0.06664278  0.90754660  0.94958477    -0.60600
Mn1018     Mn  0.50390764  0.92368892  0.99801140     1.18400
C1019       C  0.08106897  0.91963225  0.91887750     0.97700
C1020       C  0.42263943  0.91778646  0.91885655     0.98300
N1021       N  0.04309339  0.53722798  0.56537580    -0.06800
N1022       N  0.06693641  0.54396826  0.59008170    -0.63100
N1023       N  0.46180286  0.57325759  0.54644964    -0.05600
N1024       N  0.43977821  0.60008154  0.55531388    -0.63800
N1025       N  0.46083321  0.54691347  0.57053140    -0.06300
N1026       N  0.43807337  0.55509995  0.59594518    -0.63400
N1027       N  0.04221563  0.56280792  0.54039843    -0.05200
N1028       N  0.06516125  0.58736489  0.54765179    -0.64100
Mn1029     Mn  0.00328298  0.49485703  0.56480599     1.10700
C1030       C  0.08078919  0.57532244  0.57853817     0.98900
C1031       C  0.42498273  0.58833459  0.58616719     0.99000
N1032       N  0.45756292  0.54297234  0.93257000    -0.06400
N1033       N  0.43165175  0.54869229  0.90957256    -0.61700
N1034       N  0.03937009  0.56424272  0.95844591    -0.05700
N1035       N  0.06004195  0.59064793  0.94959704    -0.58500
N1036       N  0.03978517  0.53962666  0.93319096    -0.07000
N1037       N  0.06092797  0.54894383  0.90691317    -0.61300
N1038       N  0.45624477  0.56728268  0.95801485    -0.06000
N1039       N  0.42930745  0.59001949  0.95284147    -0.58500
Mn1040     Mn  0.50332630  0.99478242  0.93063262     1.20200
Mn1041     Mn  0.00201324  0.56496695  0.49755922     1.10100
Cl1042     Cl  0.00318197  0.49621616  0.49626535    -0.86500
C1043       C  0.41407134  0.57797325  0.92268866     0.95900
C1044       C  0.07354904  0.58083435  0.91747072     0.95700
C1045       C  0.16614143  0.66897460  0.82780836    -0.03000
C1046       C  0.17270741  0.83108285  0.82654388    -0.03000
C1047       C  0.18177317  0.82723363  0.67120341    -0.03000
C1048       C  0.17253239  0.66689194  0.66498026    -0.03000
C1049       C  0.31666538  0.67060957  0.83868612    -0.03000
C1050       C  0.32566946  0.67306545  0.67662865    -0.03000
C1051       C  0.33742107  0.83404667  0.67339283    -0.03000
C1052       C  0.33010887  0.83115978  0.82980828    -0.03000
C1053       C  0.31858582  0.86806560  0.77007068    -0.26800
C1054       C  0.34135611  0.84427747  0.79020064    -0.14900
C1055       C  0.37398789  0.83875514  0.77264660     0.35800
C1056       C  0.37486325  0.83851302  0.73406478    -0.26300
C1057       C  0.34457302  0.84795879  0.71341179    -0.15500
C1058       C  0.32062577  0.87127790  0.73268986     0.36800
N1059       N  0.30339098  0.90309373  0.71740993    -0.89700
H1060       H  0.29827954  0.88411900  0.78323305     0.18000
H1061       H  0.39909735  0.83193018  0.72042682     0.17900
N1062       N  0.40585917  0.83852870  0.79301494    -0.88800
H1063       H  0.28897908  0.89804758  0.69454479     0.35300
H1064       H  0.32194872  0.92234344  0.71224581     0.40400
H1065       H  0.40739103  0.86387224  0.80485102     0.40000
H1066       H  0.42728918  0.83560843  0.77590593     0.34900
C1067       C  0.31608663  0.73748863  0.64573972    -0.26800
C1068       C  0.33323687  0.71477761  0.67133689    -0.14900
C1069       C  0.36098187  0.73088675  0.69049857     0.35800
C1070       C  0.36386024  0.76864626  0.69083264    -0.26300
C1071       C  0.34433755  0.79170518  0.66729823    -0.15500
C1072       C  0.32538669  0.77362913  0.64004411     0.36800
N1073       N  0.31238117  0.79316716  0.60873139    -0.89700
H1074       H  0.29567113  0.72794670  0.62945206     0.18000
H1075       H  0.38320941  0.77855679  0.70841468     0.17900
N1076       N  0.38681337  0.70906117  0.70960290    -0.88800
H1077       H  0.29811663  0.77647297  0.59227253     0.35300
H1078       H  0.33380070  0.80083952  0.59366928     0.40400
H1079       H  0.38655018  0.71672467  0.73650858     0.40000
H1080       H  0.41126780  0.71448659  0.69901165     0.34900
C1081       C  0.35008154  0.64932073  0.77888358    -0.26800
C1082       C  0.32394987  0.67051806  0.79671025    -0.14900
C1083       C  0.30311136  0.69437271  0.77457740     0.35800
C1084       C  0.30332263  0.69126545  0.73734004    -0.26300
C1085       C  0.32741576  0.66866867  0.71897947    -0.15500
C1086       C  0.35206570  0.64815011  0.74069728     0.36800
N1087       N  0.38059634  0.62812601  0.72488128    -0.89700
H1088       H  0.37010603  0.63447431  0.79406260     0.18000
H1089       H  0.28545916  0.70886957  0.72178146     0.17900
N1090       N  0.28424249  0.72474341  0.78968009    -0.88800
H1091       H  0.38000090  0.60133592  0.73418046     0.35300
H1092       H  0.40378550  0.63864957  0.73416070     0.40400
H1093       H  0.26729238  0.71660275  0.80966285     0.40000
H1094       H  0.26911965  0.73793449  0.76998468     0.34900
C1095       C  0.35597596  0.72516707  0.83339804    -0.26800
C1096       C  0.32508619  0.71124929  0.84796911    -0.14900
C1097       C  0.30325690  0.73701969  0.86576922     0.35800
C1098       C  0.31002817  0.77390201  0.86371075    -0.26300
C1099       C  0.33427101  0.78858927  0.83915930    -0.15500
C1100       C  0.35969450  0.76259157  0.82667564     0.36800
N1101       N  0.39010741  0.77282533  0.80825030    -0.89700
H1102       H  0.37583118  0.70647644  0.82299274     0.18000
H1103       H  0.29369900  0.79158128  0.87997400     0.17900
N1104       N  0.27364941  0.72699664  0.88571464    -0.88800
H1105       H  0.39054532  0.76037785  0.78323128     0.35300
H1106       H  0.41194053  0.76314057  0.82293101     0.40400
H1107       H  0.25169970  0.73858563  0.87275361     0.40000
H1108       H  0.27530500  0.73728873  0.91164950     0.34900
C1109       C  0.26840304  0.63948014  0.68877559    -0.26800
C1110       C  0.28725393  0.66145413  0.66481848    -0.14900
C1111       C  0.26984676  0.66629652  0.63064754     0.35800
C1112       C  0.23285577  0.66283517  0.62843823    -0.26300
C1113       C  0.21275993  0.65446715  0.65909245    -0.15500
C1114       C  0.23254835  0.63452409  0.68539354     0.36800
N1115       N  0.21683375  0.60806324  0.70786407    -0.89700
H1116       H  0.28174848  0.62479419  0.71018471     0.18000
H1117       H  0.22017498  0.66591929  0.60253766     0.17900
N1118       N  0.28829521  0.67098755  0.59749087    -0.88800
H1119       H  0.22166511  0.61445393  0.73448755     0.35300
H1120       H  0.22927615  0.58290832  0.70305815     0.40400
H1121       H  0.31478538  0.67396216  0.60189268     0.40000
H1122       H  0.27837637  0.69449006  0.58444304     0.34900
C1123       C  0.14815779  0.76745604  0.68474703    -0.26800
C1124       C  0.17322397  0.78622208  0.66500624    -0.14900
C1125       C  0.18823601  0.76693574  0.63545634     0.35800
C1126       C  0.18546464  0.72932203  0.63300078    -0.26300
C1127       C  0.16622574  0.70932795  0.65789078    -0.15500
C1128       C  0.14211364  0.73065945  0.67866174     0.36800
N1129       N  0.11206007  0.71465483  0.69424152    -0.89700
H1130       H  0.13219640  0.78052793  0.70448724     0.18000
H1131       H  0.19706565  0.71697304  0.60997463     0.17900
N1132       N  0.20653807  0.78541066  0.60766968    -0.88800
H1133       H  0.09705780  0.70488935  0.67333284     0.35300
H1134       H  0.09617995  0.73428688  0.70680295     0.40400
H1135       H  0.19415428  0.78088303  0.58317627     0.40000
H1136       H  0.23190728  0.77400885  0.60646189     0.34900
C1137       C  0.23884384  0.85097992  0.64126579    -0.26800
C1138       C  0.22214518  0.82796889  0.66613762    -0.14900
C1139       C  0.24422194  0.80583006  0.68876039     0.35800
C1140       C  0.27915019  0.81264927  0.69150994    -0.26300
C1141       C  0.29646036  0.83668653  0.66874415    -0.15500
C1142       C  0.27557071  0.85478814  0.64166253     0.36800
N1143       N  0.29087349  0.87565917  0.61372391    -0.89700
H1144       H  0.22375331  0.86570556  0.62085491     0.18000
H1145       H  0.29461697  0.79513816  0.70928638     0.17900
N1146       N  0.23249024  0.77570790  0.70954330    -0.88800
H1147       H  0.27971691  0.90193887  0.61443660     0.35300
H1148       H  0.28434296  0.86449752  0.58908221     0.40400
H1149       H  0.22722851  0.75427214  0.69283448     0.40000
H1150       H  0.21120720  0.78316335  0.72552988     0.34900
C1151       C  0.19326468  0.86288645  0.76863898    -0.26800
C1152       C  0.16625640  0.84547299  0.78626074    -0.14900
C1153       C  0.13575591  0.84341964  0.76413298     0.35800
C1154       C  0.13989428  0.84131610  0.72615120    -0.26300
C1155       C  0.17336748  0.84216423  0.71029782    -0.15500
C1156       C  0.19784429  0.86054965  0.73179372     0.36800
N1157       N  0.22736499  0.87782918  0.71732000    -0.89700
H1158       H  0.21334621  0.87593834  0.78357245     0.18000
H1159       H  0.11720107  0.83772506  0.70940251     0.17900
N1160       N  0.10095591  0.84494716  0.77838956    -0.88800
H1161       H  0.24919365  0.86676112  0.73095740     0.35300
H1162       H  0.22527025  0.90531782  0.72360999     0.40400
H1163       H  0.10128132  0.84416043  0.80631864     0.40000
H1164       H  0.08771301  0.82250572  0.76974171     0.34900
C1165       C  0.23405126  0.81171804  0.81089610    -0.26800
C1166       C  0.21345715  0.83239841  0.83438602    -0.14900
C1167       C  0.23199374  0.85313205  0.85990521     0.35800
C1168       C  0.26923499  0.85510750  0.85794382    -0.26300
C1169       C  0.28876963  0.83718838  0.83073534    -0.15500
C1170       C  0.26937496  0.81707571  0.80610342     0.36800
N1171       N  0.28522214  0.80403716  0.77397195    -0.89700
H1172       H  0.22116891  0.79458119  0.79209160     0.18000
H1173       H  0.28275059  0.86946561  0.87853400     0.17900
N1174       N  0.21419853  0.86990904  0.88934150    -0.88800
H1175       H  0.26661054  0.79291321  0.75823042     0.35300
H1176       H  0.30501166  0.78458396  0.77923507     0.40400
H1177       H  0.22007078  0.89726391  0.88933192     0.40000
H1178       H  0.22430261  0.85816179  0.91310446     0.34900
C1179       C  0.13946790  0.64480168  0.76537736    -0.26800
C1180       C  0.16312067  0.66557710  0.78518272    -0.14900
C1181       C  0.18558997  0.68630822  0.76427984     0.35800
C1182       C  0.18709983  0.68427969  0.72741005    -0.26300
C1183       C  0.16569566  0.66295561  0.70694124    -0.15500
C1184       C  0.14019576  0.64367701  0.72671135     0.36800
N1185       N  0.11403417  0.62454455  0.70843274    -0.89700
H1186       H  0.11975837  0.63017753  0.77944740     0.18000
H1187       H  0.20657354  0.70006291  0.71416618     0.17900
N1188       N  0.21040967  0.70771548  0.78081831    -0.88800
H1189       H  0.08965014  0.63565166  0.71580638     0.35300
H1190       H  0.11570858  0.59758151  0.71739682     0.40400
H1191       H  0.20730281  0.73415014  0.77059876     0.40000
H1192       H  0.23344717  0.69575429  0.77136783     0.34900
C1193       C  0.22569818  0.63594386  0.81429203    -0.26800
C1194       C  0.20448434  0.65487985  0.83901233    -0.14900
C1195       C  0.22083978  0.65762506  0.87321029     0.35800
C1196       C  0.25802126  0.65865276  0.87512232    -0.26300
C1197       C  0.27818876  0.65663344  0.84335662    -0.15500
C1198       C  0.26201388  0.63586646  0.81660121     0.36800
N1199       N  0.28186350  0.61292474  0.79308264    -0.89700
H1200       H  0.21434023  0.62203672  0.79222993     0.18000
H1201       H  0.27051866  0.66246588  0.90079366     0.17900
N1202       N  0.20075378  0.65586425  0.90550851    -0.88800
H1203       H  0.27489323  0.62037175  0.76694355     0.35300
H1204       H  0.27453141  0.58628835  0.79740761     0.40400
H1205       H  0.20770267  0.63130810  0.91845317     0.40000
H1206       H  0.20839274  0.67622674  0.92268437     0.34900
C1207       C  0.17783690  0.73069288  0.86142380    -0.26800
C1208       C  0.16003668  0.71129703  0.83498454    -0.14900
C1209       C  0.13765150  0.73320146  0.81243929     0.35800
C1210       C  0.14303259  0.77039275  0.80806338    -0.26300
C1211       C  0.16458582  0.78944862  0.83136370    -0.15500
C1212       C  0.17797565  0.76893122  0.86129558     0.36800
N1213       N  0.19063787  0.78702344  0.89226016    -0.89700
H1214       H  0.19082160  0.71734847  0.88340645     0.18000
H1215       H  0.12912033  0.78307768  0.78637063     0.17900
N1216       N  0.10977039  0.71770335  0.79306469    -0.88800
H1217       H  0.17600103  0.77916177  0.91444781     0.35300
H1218       H  0.21657083  0.77891524  0.89711538     0.40400
H1219       H  0.11338719  0.72308133  0.76578859     0.40000
H1220       H  0.08640997  0.73089934  0.80073695     0.34900
C1221       C  0.11861917  0.58726001  0.86972039    -0.26800
C1222       C  0.09600932  0.60389333  0.89457462    -0.14900
C1223       C  0.09462988  0.64220409  0.89600441     0.35800
C1224       C  0.11584384  0.66248715  0.87341852    -0.26300
C1225       C  0.13974419  0.64602216  0.84914855    -0.15500
C1226       C  0.14055189  0.60755269  0.84762993     0.36800
N1227       N  0.16401815  0.58857023  0.82403903    -0.89700
H1228       H  0.11993877  0.55799765  0.86789143     0.18000
H1229       H  0.11365700  0.69156377  0.87599319     0.17900
N1230       N  0.07153128  0.66168169  0.91965682    -0.88800
H1231       H  0.14940726  0.57274955  0.80703037     0.35300
H1232       H  0.18033886  0.57115285  0.83958870     0.40400
H1233       H  0.07848201  0.65507270  0.94618361     0.40000
H1234       H  0.04601442  0.65415841  0.91470430     0.34900
C1235       C  0.13669401  0.83512333  0.61970394    -0.26800
C1236       C  0.16023948  0.85116126  0.64362252    -0.14900
C1237       C  0.16100496  0.88962759  0.64272063     0.35800
C1238       C  0.13848150  0.91004318  0.61983391    -0.26300
C1239       C  0.11531605  0.89326739  0.59706195    -0.15500
C1240       C  0.11514868  0.85525829  0.59648785     0.36800
N1241       N  0.09207993  0.83583732  0.57412507    -0.89700
H1242       H  0.13324082  0.80639400  0.61875958     0.18000
H1243       H  0.13874505  0.93935638  0.62035861     0.17900
N1244       N  0.18400333  0.90852253  0.66531549    -0.88800
H1245       H  0.09770513  0.84125456  0.54719107     0.35300
H1246       H  0.06628105  0.84389360  0.57982057     0.40400
H1247       H  0.16897296  0.92592309  0.68150912     0.40000
H1248       H  0.19970133  0.92434753  0.64905358     0.34900
C1249       C  0.37825588  0.66726525  0.63284077    -0.26800
C1250       C  0.35353264  0.65006397  0.65503936    -0.14900
C1251       C  0.35348719  0.61163846  0.65357585     0.35800
C1252       C  0.37695141  0.59237406  0.63111013    -0.26300
C1253       C  0.40041590  0.61014846  0.60882793    -0.15500
C1254       C  0.40099750  0.64817947  0.61014149     0.36800
N1255       N  0.42481205  0.66857285  0.58925651    -0.89700
H1256       H  0.38005092  0.69627560  0.63145737     0.18000
H1257       H  0.37636616  0.56309073  0.63074797     0.17900
N1258       N  0.32964662  0.59166904  0.67467406    -0.88800
H1259       H  0.41943666  0.66516478  0.56201950     0.35300
H1260       H  0.45027739  0.65902522  0.59506642     0.40400
H1261       H  0.34393780  0.57280663  0.69063416     0.40000
H1262       H  0.31417414  0.57728309  0.65718258     0.34900
C1263       C  0.15106959  0.60539126  0.64453242    -0.26800
C1264       C  0.14888224  0.64363603  0.64057251    -0.14900
C1265       C  0.12557421  0.65794942  0.61319626     0.35800
C1266       C  0.10471689  0.63487226  0.59348540    -0.26300
C1267       C  0.10557094  0.59737427  0.59940791    -0.15500
C1268       C  0.12949334  0.58251217  0.62495463     0.36800
N1269       N  0.13242267  0.54414519  0.63088608    -0.89700
H1270       H  0.16894610  0.59293475  0.66395459     0.18000
H1271       H  0.08699395  0.64690928  0.57348758     0.17900
N1272       N  0.12257828  0.69573156  0.60420124    -0.88800
H1273       H  0.12748188  0.53890826  0.65802270     0.35300
H1274       H  0.15816328  0.53547012  0.62565458     0.40400
H1275       H  0.12917934  0.69907620  0.57717002     0.40000
H1276       H  0.09656458  0.70467842  0.60730105     0.34900
C1277       C  0.39178102  0.86135732  0.90753209    -0.26800
C1278       C  0.39572157  0.89784109  0.89881699    -0.14900
C1279       C  0.37502637  0.91337189  0.87078380     0.35800
C1280       C  0.35182996  0.89191499  0.85165352    -0.26300
C1281       C  0.35012509  0.85406814  0.85783539    -0.15500
C1282       C  0.37014305  0.83935553  0.88766199     0.36800
N1283       N  0.36941770  0.80217229  0.89874530    -0.89700
H1284       H  0.40689106  0.84892811  0.92944061     0.18000
H1285       H  0.33643204  0.90488235  0.83035259     0.21100
N1286       N  0.37768799  0.95080264  0.86118067    -0.88800
H1287       H  0.36114027  0.80098486  0.92544172     0.35300
H1288       H  0.39475491  0.79069247  0.89744777     0.40400
H1289       H  0.35296846  0.96351534  0.86355708     0.40000
H1290       H  0.38502346  0.95237008  0.83420424     0.34900
C1291       C  0.37409733  0.63146478  0.91713363    -0.26800
C1292       C  0.38541349  0.59802235  0.90373205    -0.14900
C1293       C  0.37023542  0.58563555  0.87199511     0.35800
C1294       C  0.34724108  0.60879644  0.85224822    -0.26300
C1295       C  0.34009509  0.64493600  0.86251514    -0.15500
C1296       C  0.35083886  0.65430447  0.89784302     0.36800
N1297       N  0.33731964  0.68599837  0.91549114    -0.89700
H1298       H  0.38341733  0.64033875  0.94293574     0.18000
H1299       H  0.33589326  0.59837030  0.82821436     0.17900
N1300       N  0.37795177  0.54969687  0.85961638    -0.88800
H1301       H  0.35820148  0.70180188  0.92250534     0.35300
H1302       H  0.32494199  0.67797155  0.93909876     0.40400
H1303       H  0.38829947  0.55160865  0.83376030     0.40000
H1304       H  0.35452169  0.53635749  0.85789330     0.34900
C1305       C  0.12836805  0.91410900  0.87363898    -0.26800
C1306       C  0.10528100  0.89745995  0.89697545    -0.14900
C1307       C  0.10371776  0.85960690  0.89736050     0.35800
C1308       C  0.12570992  0.83899680  0.87529742    -0.26300
C1309       C  0.15002969  0.85494465  0.85206480    -0.15500
C1310       C  0.15053679  0.89347457  0.85122076     0.36800
N1311       N  0.17316828  0.91205674  0.82744752    -0.89700
H1312       H  0.12916207  0.94339061  0.87264828     0.18000
H1313       H  0.12215001  0.81022501  0.87614901     0.17900
N1314       N  0.07847219  0.84177749  0.91881635    -0.88800
H1315       H  0.18863338  0.92880034  0.84259659     0.35300
H1316       H  0.15771057  0.92867094  0.81024174     0.40400
H1317       H  0.09174367  0.82317037  0.93594010     0.40000
H1318       H  0.06256887  0.82741131  0.90171942     0.34900
C1319       C  0.35467617  0.89462975  0.64476479    -0.26800
C1320       C  0.35989776  0.85650859  0.64659095    -0.14900
C1321       C  0.38839588  0.84164404  0.62581419     0.35800
C1322       C  0.40827609  0.86421157  0.60414846    -0.26300
C1323       C  0.40285183  0.90175460  0.60365898    -0.15500
C1324       C  0.37585024  0.91712610  0.62427667     0.36800
N1325       N  0.36925735  0.95556556  0.62395364    -0.89700
H1326       H  0.33324422  0.90754062  0.65825555     0.18000
H1327       H  0.42954705  0.85208293  0.58877799     0.17900
N1328       N  0.39898855  0.80403517  0.62701762    -0.88800
H1329       H  0.37112779  0.96453812  0.65036253     0.35300
H1330       H  0.34364342  0.96094143  0.61508595     0.40400
H1331       H  0.42478106  0.80158229  0.63620916     0.40000
H1332       H  0.39818330  0.79398972  0.60093187     0.34900
N1333       N  0.95947687  0.45324555  0.06682488    -0.06600
N1334       N  0.93493190  0.44692911  0.09067326    -0.58700
N1335       N  0.54198418  0.43079505  0.04119392    -0.06300
N1336       N  0.56567168  0.40502741  0.04929816    -0.60900
N1337       N  0.54031095  0.45498651  0.06673168    -0.05900
N1338       N  0.56294130  0.44621603  0.09259496    -0.58700
N1339       N  0.95898589  0.42919318  0.04112845    -0.05600
N1340       N  0.93448932  0.40592900  0.04715353    -0.61200
C1341       C  0.91937819  0.41749208  0.07788033     0.95600
C1342       C  0.57867800  0.41500593  0.08131762     0.95300
N1343       N  0.53975763  0.46044347  0.43373454    -0.06800
N1344       N  0.56373720  0.45221697  0.40952906    -0.59300
N1345       N  0.96432590  0.42960844  0.45165751    -0.04900
N1346       N  0.94063915  0.40580174  0.44396875    -0.60600
N1347       N  0.96425394  0.45543124  0.42689997    -0.06800
N1348       N  0.94057890  0.44949002  0.40192516    -0.59600
N1349       N  0.53784808  0.43424520  0.45780337    -0.04600
N1350       N  0.56029165  0.40746875  0.45040093    -0.60600
Mn1351     Mn  0.00419028  0.42707951  0.49522441     1.18400
C1352       C  0.57637054  0.41913022  0.42040396     0.97700
C1353       C  0.92577117  0.41848480  0.41286347     0.98300
N1354       N  0.54470504  0.03275408  0.06762440    -0.06800
N1355       N  0.56830208  0.03944210  0.09253389    -0.63100
N1356       N  0.95956497  0.06577705  0.04281151    -0.05600
N1357       N  0.93645645  0.09165937  0.05089104    -0.63800
N1358       N  0.96008372  0.03995672  0.06759461    -0.06300
N1359       N  0.93724129  0.04784981  0.09301599    -0.63400
N1360       N  0.54340017  0.05875699  0.04306108    -0.05200
N1361       N  0.56594079  0.08353974  0.05083340    -0.64100
Mn1362     Mn  0.50521581  0.99051600  0.06766838     1.10700
C1363       C  0.58164712  0.07118011  0.08158279     0.98900
C1364       C  0.92269323  0.08015727  0.08211552     0.99000
N1365       N  0.96597339  0.04259025  0.43517608    -0.06400
N1366       N  0.94251691  0.05111093  0.41016123    -0.61700
N1367       N  0.54815229  0.06660735  0.46015002    -0.05700
N1368       N  0.57146275  0.09073665  0.45277418    -0.58500
N1369       N  0.54818684  0.04192221  0.43510440    -0.07000
N1370       N  0.57145144  0.04900356  0.41011532    -0.61300
N1371       N  0.96544009  0.06714279  0.46039787    -0.06000
N1372       N  0.94134533  0.09278577  0.45311293    -0.58500
Mn1373     Mn  0.00373465  0.49799182  0.42771018     1.20200
Mn1374     Mn  0.50248148  0.06154205  0.00079846     1.10100
Cl1375     Cl  0.50366843  0.99270693  0.99925773    -0.86500
C1376       C  0.92696487  0.08215425  0.42196187     0.95900
C1377       C  0.58590479  0.07961450  0.42155586     0.95700
C1378       C  0.67588850  0.16821373  0.33019158    -0.03000
C1379       C  0.67167454  0.32909663  0.33365289    -0.03000
C1380       C  0.67225589  0.32511054  0.17633917    -0.03000
C1381       C  0.67267484  0.16321223  0.16811818    -0.03000
C1382       C  0.82816648  0.16876827  0.33142082    -0.03000
C1383       C  0.82446309  0.16781350  0.16941448    -0.03000
C1384       C  0.82813755  0.33013072  0.16874957    -0.03000
C1385       C  0.82971010  0.33118174  0.32689001    -0.03000
C1386       C  0.81545801  0.36527446  0.26658492    -0.26800
C1387       C  0.83827632  0.34058335  0.28552886    -0.14900
C1388       C  0.86884468  0.33125093  0.26532864     0.35800
C1389       C  0.86789505  0.33317497  0.22703094    -0.26300
C1390       C  0.83724904  0.34410726  0.20824162    -0.15500
C1391       C  0.81488027  0.36790955  0.22905805     0.36800
N1392       N  0.79667278  0.39968222  0.21483787    -0.89700
H1393       H  0.79719214  0.38270107  0.28108649     0.18000
H1394       H  0.89154253  0.32726792  0.21215632     0.17900
N1395       N  0.90196056  0.32596926  0.28240462    -0.88800
H1396       H  0.78114412  0.39493542  0.19272816     0.35300
H1397       H  0.81462322  0.41942978  0.20923343     0.40400
H1398       H  0.91716181  0.34766486  0.27500123     0.40000
H1399       H  0.91402880  0.30259909  0.27181528     0.34900
C1400       C  0.80942797  0.23212263  0.14023071    -0.26800
C1401       C  0.83083094  0.20955669  0.16244382    -0.14900
C1402       C  0.85846333  0.22699372  0.18030760     0.35800
C1403       C  0.85850040  0.26496663  0.18222433    -0.26300
C1404       C  0.83461755  0.28767524  0.16255055    -0.15500
C1405       C  0.81424727  0.26947312  0.13655843     0.36800
N1406       N  0.79653858  0.28933592  0.10782206    -0.89700
H1407       H  0.78845598  0.22184829  0.12534063     0.18000
H1408       H  0.87896965  0.27526915  0.19795287     0.17900
N1409       N  0.88625114  0.20615084  0.19768969    -0.88800
H1410       H  0.78302129  0.27204127  0.09131628     0.35300
H1411       H  0.81532894  0.30079916  0.09154566     0.40400
H1412       H  0.88665047  0.21294920  0.22485306     0.40000
H1413       H  0.90981574  0.21358750  0.18631640     0.34900
C1414       C  0.84836043  0.13911135  0.26968840    -0.26800
C1415       C  0.83115844  0.16740149  0.28909508    -0.14900
C1416       C  0.80932220  0.19126707  0.26826890     0.35800
C1417       C  0.80739332  0.18844403  0.23100240    -0.26300
C1418       C  0.82876017  0.16420215  0.21138617    -0.15500
C1419       C  0.85057344  0.13956711  0.23177435     0.36800
N1420       N  0.87520747  0.11516533  0.21516821    -0.89700
H1421       H  0.85991446  0.11579397  0.28367452     0.18000
H1422       H  0.78893357  0.20631579  0.21648489     0.17900
N1423       N  0.78744474  0.21796262  0.28511947    -0.88800
H1424       H  0.87027983  0.08887335  0.22391730     0.35300
H1425       H  0.90007415  0.12113353  0.22434513     0.40400
H1426       H  0.76773192  0.20522493  0.29896475     0.40000
H1427       H  0.77572582  0.23386429  0.26527460     0.34900
C1428       C  0.86344358  0.22837518  0.33126780    -0.26800
C1429       C  0.83267691  0.21050565  0.34142136    -0.14900
C1430       C  0.80849587  0.23339957  0.35988955     0.35800
C1431       C  0.81044683  0.27106710  0.35784161    -0.26300
C1432       C  0.83618899  0.28918194  0.33805608    -0.15500
C1433       C  0.86616968  0.26677382  0.33159136     0.36800
N1434       N  0.89990883  0.28110886  0.33607904    -0.89700
H1435       H  0.88673228  0.21273674  0.32567176     0.18000
H1436       H  0.79061697  0.28614529  0.37250424     0.17900
N1437       N  0.78210436  0.21996575  0.38217496    -0.88800
H1438       H  0.91893048  0.26352109  0.32507128     0.35300
H1439       H  0.90496659  0.28188795  0.36365810     0.40400
H1440       H  0.75848516  0.23025689  0.37174544     0.40000
H1441       H  0.78527789  0.22980049  0.40813247     0.34900
C1442       C  0.76816855  0.13526794  0.18653312    -0.26800
C1443       C  0.78580471  0.15610329  0.16054289    -0.14900
C1444       C  0.76693716  0.16026374  0.12717323     0.35800
C1445       C  0.72984386  0.15832450  0.12736526    -0.26300
C1446       C  0.71185639  0.15046532  0.15943774    -0.15500
C1447       C  0.73260220  0.12983410  0.18437141     0.36800
N1448       N  0.71805291  0.10252555  0.20671465    -0.89700
H1449       H  0.78194285  0.12172897  0.20863912     0.18000
H1450       H  0.71536531  0.16305261  0.10262436     0.17900
N1451       N  0.78388354  0.16428428  0.09303066    -0.88800
H1452       H  0.72401829  0.10792064  0.23328711     0.35300
H1453       H  0.73042097  0.07766854  0.20051710     0.40400
H1454       H  0.81057225  0.16726890  0.09613240     0.40000
H1455       H  0.77358713  0.18763769  0.08001357     0.34900
C1456       C  0.64214226  0.26250984  0.18887829    -0.26800
C1457       C  0.66516308  0.28371146  0.16891621    -0.14900
C1458       C  0.68126955  0.26566325  0.13916046     0.35800
C1459       C  0.68342677  0.22756610  0.13778570    -0.26300
C1460       C  0.66494706  0.20571467  0.16182541    -0.15500
C1461       C  0.63940908  0.22510273  0.18262338     0.36800
N1462       N  0.61079949  0.20667377  0.19785618    -0.89700
H1463       H  0.62492474  0.27408550  0.20852272     0.18000
H1464       H  0.69816898  0.21630933  0.11610203     0.17900
N1465       N  0.69627631  0.28588376  0.11043409    -0.88800
H1466       H  0.58768847  0.21908241  0.18788941     0.35300
H1467       H  0.61127500  0.21026398  0.22553684     0.40400
H1468       H  0.68386078  0.27920623  0.08653321     0.40000
H1469       H  0.72257426  0.27767201  0.10847474     0.34900
C1470       C  0.72793967  0.35035832  0.14425891    -0.26800
C1471       C  0.71246375  0.32708558  0.16979388    -0.14900
C1472       C  0.73572081  0.30490025  0.19124861     0.35800
C1473       C  0.77092997  0.31034229  0.19112204    -0.26300
C1474       C  0.78712638  0.33359633  0.16682556    -0.15500
C1475       C  0.76480982  0.35306378  0.14190676     0.36800
N1476       N  0.77879820  0.37488623  0.11393020    -0.89700
H1477       H  0.71175252  0.36593496  0.12536079     0.18000
H1478       H  0.78709382  0.29277910  0.20831392     0.17900
N1479       N  0.72491324  0.27562106  0.21348845    -0.88800
H1480       H  0.76847024  0.40132785  0.11666309     0.35300
H1481       H  0.77026989  0.36517618  0.08932239     0.40400
H1482       H  0.71871311  0.25388888  0.19770387     0.40000
H1483       H  0.70463860  0.28359418  0.23046560     0.34900
C1484       C  0.68677990  0.36143321  0.27389071    -0.26800
C1485       C  0.66205409  0.34236383  0.29334212    -0.14900
C1486       C  0.63100052  0.33734086  0.27259072     0.35800
C1487       C  0.63353716  0.33450887  0.23449887    -0.26300
C1488       C  0.66555822  0.33850432  0.21648171    -0.15500
C1489       C  0.69005871  0.35844290  0.23681524     0.36800
N1490       N  0.71871539  0.37626734  0.22099647    -0.89700
H1491       H  0.70677239  0.37584118  0.28755414     0.18000
H1492       H  0.61022868  0.32995556  0.21903260     0.17900
N1493       N  0.59657620  0.34132969  0.28746437    -0.88800
H1494       H  0.74136880  0.36576951  0.23364231     0.35300
H1495       H  0.71639574  0.40379839  0.22706861     0.40400
H1496       H  0.59735172  0.34378377  0.31516680     0.40000
H1497       H  0.58232416  0.31877019  0.28119700     0.34900
C1498       C  0.73218359  0.31225923  0.31280554    -0.26800
C1499       C  0.71294985  0.33188576  0.33820697    -0.14900
C1500       C  0.73312970  0.35087230  0.36377179     0.35800
C1501       C  0.77015559  0.35371789  0.35918080    -0.26300
C1502       C  0.78826512  0.33686246  0.33025949    -0.15500
C1503       C  0.76744695  0.31670249  0.30668864     0.36800
N1504       N  0.78207502  0.30108070  0.27504915    -0.89700
H1505       H  0.71825448  0.29534466  0.29464071     0.18000
H1506       H  0.78476460  0.36729400  0.37948054     0.17900
N1507       N  0.71758771  0.36343051  0.39640932    -0.88800
H1508       H  0.76304035  0.28875333  0.26078584     0.35300
H1509       H  0.80163308  0.28181010  0.28170082     0.40400
H1510       H  0.72356292  0.39050525  0.39959638     0.40000
H1511       H  0.72959196  0.34885094  0.41769427     0.34900
C1512       C  0.64652271  0.14294106  0.27054154    -0.26800
C1513       C  0.66931893  0.16638849  0.28816107    -0.14900
C1514       C  0.68879109  0.18880103  0.26542647     0.35800
C1515       C  0.69156170  0.18207311  0.22908667    -0.26300
C1516       C  0.66932293  0.15958588  0.21054154    -0.15500
C1517       C  0.64551091  0.14019429  0.23220953     0.36800
N1518       N  0.61958810  0.11885890  0.21625145    -0.89700
H1519       H  0.62846434  0.12752769  0.28607031     0.18000
H1520       H  0.70996017  0.19740448  0.21394424     0.17900
N1521       N  0.70348613  0.22094986  0.27848863    -0.88800
H1522       H  0.59509431  0.12903966  0.22436461     0.35300
H1523       H  0.62298976  0.09237018  0.22631303     0.40400
H1524       H  0.68503331  0.24187650  0.27287713     0.40000
H1525       H  0.72373670  0.22748123  0.26199863     0.34900
C1526       C  0.73533916  0.13779064  0.31004803    -0.26800
C1527       C  0.71549747  0.15489886  0.33728050    -0.14900
C1528       C  0.73329860  0.15392651  0.37090460     0.35800
C1529       C  0.77066869  0.15214828  0.37177512    -0.26300
C1530       C  0.79042870  0.15131555  0.33938175    -0.15500
C1531       C  0.77181896  0.13278527  0.31249903     0.36800
N1532       N  0.78921208  0.10604951  0.29062707    -0.89700
H1533       H  0.72235933  0.12608743  0.28776425     0.18000
H1534       H  0.78263385  0.15427947  0.39770910     0.17900
N1535       N  0.71416401  0.15246210  0.40383512    -0.88800
H1536       H  0.77158245  0.09346344  0.27394672     0.35300
H1537       H  0.79985847  0.08587691  0.30788856     0.40400
H1538       H  0.72019376  0.12732758  0.41607546     0.40000
H1539       H  0.72322876  0.17209479  0.42106977     0.34900
C1540       C  0.68833308  0.22869584  0.36392019    -0.26800
C1541       C  0.66831074  0.20942963  0.33962006    -0.14900
C1542       C  0.63955733  0.22968774  0.32418688     0.35800
C1543       C  0.63985116  0.26783283  0.32241376    -0.26300
C1544       C  0.66555236  0.28726936  0.34015787    -0.15500
C1545       C  0.68511349  0.26664251  0.36631895     0.36800
N1546       N  0.70076688  0.28396133  0.39611358    -0.89700
H1547       H  0.70525224  0.21499285  0.38271541     0.18000
H1548       H  0.61921471  0.28122390  0.30775298     0.17900
N1549       N  0.61042614  0.21171481  0.30972256    -0.88800
H1550       H  0.69040563  0.27330135  0.41973990     0.35300
H1551       H  0.72754369  0.27771806  0.39615925     0.40400
H1552       H  0.60667638  0.22070830  0.28327943     0.40000
H1553       H  0.58829830  0.22008100  0.32416641     0.34900
C1554       C  0.63066383  0.08526870  0.37319694    -0.26800
C1555       C  0.60942294  0.10176541  0.39944882    -0.14900
C1556       C  0.60982083  0.13972715  0.40290870     0.35800
C1557       C  0.63032257  0.15995286  0.38019053    -0.26300
C1558       C  0.65180326  0.14414283  0.35327993    -0.15500
C1559       C  0.65223906  0.10577155  0.35080982     0.36800
N1560       N  0.67475296  0.08725411  0.32592451    -0.89700
H1561       H  0.63093810  0.05612699  0.37029964     0.18000
H1562       H  0.62917833  0.18867065  0.38500757     0.17900
N1563       N  0.58919826  0.15924612  0.42878870    -0.88800
H1564       H  0.65946811  0.07178476  0.30922348     0.35300
H1565       H  0.69154123  0.06946305  0.34051316     0.40400
H1566       H  0.59720442  0.15106737  0.45462287     0.40000
H1567       H  0.56288931  0.15413701  0.42479103     0.34900
C1568       C  0.62381924  0.33359086  0.12761593    -0.26800
C1569       C  0.64861623  0.34939843  0.15038333    -0.14900
C1570       C  0.64877659  0.38793946  0.14987163     0.35800
C1571       C  0.62613745  0.40853916  0.12696043    -0.26300
C1572       C  0.60292980  0.39208120  0.10387909    -0.15500
C1573       C  0.60170264  0.35404247  0.10466279     0.36800
N1574       N  0.57715374  0.33508452  0.08368363    -0.89700
H1575       H  0.62037334  0.30479801  0.12719514     0.18000
H1576       H  0.62683231  0.43782593  0.12723892     0.17900
N1577       N  0.67154934  0.40680885  0.17269785    -0.88800
H1578       H  0.58247584  0.33912679  0.05646803     0.35300
H1579       H  0.55197070  0.34523042  0.08938774     0.40400
H1580       H  0.65632605  0.42378595  0.18913680     0.40000
H1581       H  0.68706589  0.42304388  0.15666406     0.34900
C1582       C  0.87788383  0.16008143  0.12751079    -0.26800
C1583       C  0.85109802  0.14387247  0.14752311    -0.14900
C1584       C  0.84869394  0.10557574  0.14455477     0.35800
C1585       C  0.87246249  0.08553573  0.12335591    -0.26300
C1586       C  0.89849158  0.10236874  0.10403255    -0.15500
C1587       C  0.90144988  0.14006545  0.10665602     0.36800
N1588       N  0.92879359  0.15897894  0.08938890    -0.89700
H1589       H  0.88121865  0.18886515  0.12705187     0.18000
H1590       H  0.87016169  0.05647642  0.12162683     0.17900
N1591       N  0.82225066  0.08644043  0.16283261    -0.88800
H1592       H  0.92580913  0.15740715  0.06157736     0.35300
H1593       H  0.95283530  0.14687704  0.09715144     0.40400
H1594       H  0.83419955  0.06593528  0.17878539     0.40000
H1595       H  0.80708771  0.07405891  0.14352880     0.34900
C1596       C  0.64977534  0.10151519  0.14955986    -0.26800
C1597       C  0.64810977  0.13972349  0.14497938    -0.14900
C1598       C  0.62585850  0.15376071  0.11662709     0.35800
C1599       C  0.60545918  0.13061076  0.09658087    -0.26300
C1600       C  0.60577324  0.09324807  0.10308309    -0.15500
C1601       C  0.62840842  0.07858125  0.12990200     0.36800
N1602       N  0.63015014  0.04039532  0.13719710    -0.89700
H1603       H  0.66700125  0.08906736  0.16951015     0.18000
H1604       H  0.58868401  0.14249691  0.07567805     0.17900
N1605       N  0.62394013  0.19129180  0.10657933    -0.88800
H1606       H  0.62399492  0.03628686  0.16424423     0.35300
H1607       H  0.65587603  0.03084182  0.13334917     0.40400
H1608       H  0.63130655  0.19376270  0.07967229     0.40000
H1609       H  0.59806550  0.20096874  0.10893644     0.34900
C1610       C  0.88180005  0.36994264  0.40801228    -0.26800
C1611       C  0.89886059  0.39894969  0.39201089    -0.14900
C1612       C  0.89044261  0.40808787  0.35606088     0.35800
C1613       C  0.86677377  0.38762052  0.33679642    -0.26300
C1614       C  0.85117501  0.35654926  0.35159701    -0.15500
C1615       C  0.85803899  0.34924605  0.38869574     0.36800
N1616       N  0.84119292  0.32083647  0.40736776    -0.89700
H1617       H  0.88705492  0.36294181  0.43593069     0.18000
H1618       H  0.86152453  0.39650792  0.30950383     0.21100
N1619       N  0.90657651  0.43761968  0.33825583    -0.88800
H1620       H  0.82741135  0.33212503  0.42891579     0.35300
H1621       H  0.86042773  0.30265459  0.41774664     0.40400
H1622       H  0.88691613  0.45601091  0.32916926     0.40000
H1623       H  0.91984708  0.42749218  0.31583147     0.34900
C1624       C  0.91026625  0.10869194  0.36315689    -0.26800
C1625       C  0.90289263  0.10507782  0.39963863    -0.14900
C1626       C  0.87529510  0.12624154  0.41406904     0.35800
C1627       C  0.85371621  0.14741017  0.39108944    -0.26300
C1628       C  0.85799777  0.14814851  0.35339391    -0.15500
C1629       C  0.89108873  0.13314647  0.34092170     0.36800
N1630       N  0.90925556  0.14465678  0.30912714    -0.89700
H1631       H  0.93377524  0.09550550  0.35262782     0.18000
H1632       H  0.83457168  0.16517950  0.40344350     0.17900
N1633       N  0.86816170  0.12654501  0.45179316    -0.88800
H1634       H  0.93369410  0.15332140  0.31703203     0.35300
H1635       H  0.89765151  0.16726726  0.29660292     0.40400
H1636       H  0.88948164  0.13680805  0.46521137     0.40000
H1637       H  0.86485847  0.09992846  0.46062411     0.34900
C1638       C  0.62883437  0.41210662  0.38171741    -0.26800
C1639       C  0.60119644  0.39645105  0.39966459    -0.14900
C1640       C  0.59664737  0.35921022  0.39662516     0.35800
C1641       C  0.62168868  0.33754104  0.37898553    -0.26300
C1642       C  0.64946209  0.35274339  0.35970767    -0.15500
C1643       C  0.65213825  0.39101748  0.36088021     0.36800
N1644       N  0.67790315  0.40897813  0.34036055    -0.89700
H1645       H  0.63190716  0.44106961  0.38313041     0.18000
H1646       H  0.61683004  0.30903075  0.37800494     0.17900
N1647       N  0.56515989  0.34366724  0.40896112    -0.88800
H1648       H  0.69226528  0.42471708  0.35765087     0.35300
H1649       H  0.66493196  0.42672338  0.32217523     0.40400
H1650       H  0.57183495  0.32254920  0.42699377     0.40000
H1651       H  0.55271473  0.33267205  0.38683136     0.34900
C1652       C  0.84675870  0.39024757  0.14064243    -0.26800
C1653       C  0.84968801  0.35199694  0.14056157    -0.14900
C1654       C  0.87555991  0.33641345  0.11675211     0.35800
C1655       C  0.89621101  0.35867794  0.09566232    -0.26300
C1656       C  0.89396263  0.39625732  0.09809799    -0.15500
C1657       C  0.86878991  0.41222796  0.12061647     0.36800
N1658       N  0.86511800  0.45083788  0.12298416    -0.89700
H1659       H  0.82695087  0.40370876  0.15601578     0.18000
H1660       H  0.91565616  0.34601068  0.07833902     0.17900
N1661       N  0.88255082  0.29822325  0.11371160    -0.88800
H1662       H  0.86868846  0.45777875  0.14983096     0.35300
H1663       H  0.83959485  0.45877755  0.11553970     0.40400
H1664       H  0.90858413  0.29233267  0.12085817     0.40000
H1665       H  0.87916441  0.29105476  0.08689209     0.34900
N1666       N  0.96377878  0.45281372  0.56270236    -0.06600
N1667       N  0.94005662  0.44597278  0.58714793    -0.58700
N1668       N  0.53687706  0.43202979  0.54217607    -0.06300
N1669       N  0.56124135  0.40633712  0.54782304    -0.60900
N1670       N  0.53768046  0.45618327  0.56770082    -0.05900
N1671       N  0.56262049  0.44751657  0.59113597    -0.58700
N1672       N  0.96368260  0.42821148  0.53747300    -0.05600
N1673       N  0.93982709  0.40420695  0.54446578    -0.61200
C1674       C  0.92513328  0.41568267  0.57558366     0.95600
C1675       C  0.57711483  0.41638659  0.57837431     0.95300
N1676       N  0.54210231  0.46026867  0.93151295    -0.06800
N1677       N  0.56692849  0.45407852  0.90767750    -0.59300
N1678       N  0.95864925  0.43024477  0.95571924    -0.04900
N1679       N  0.93485898  0.40669979  0.94735914    -0.60600
N1680       N  0.95990150  0.45569897  0.93076790    -0.06800
N1681       N  0.93700764  0.44990749  0.90500745    -0.59600
N1682       N  0.54328220  0.43495676  0.95668706    -0.04600
N1683       N  0.56886263  0.41114770  0.95064165    -0.60600
Mn1684     Mn  0.99865064  0.42699837  0.99895467     1.18400
C1685       C  0.58350128  0.42330644  0.92011351     0.97700
C1686       C  0.92128600  0.41933593  0.91561268     0.98300
N1687       N  0.54742553  0.04137680  0.57037429    -0.06800
N1688       N  0.57160091  0.04715812  0.59486419    -0.63100
N1689       N  0.96565492  0.06447758  0.54537213    -0.05600
N1690       N  0.94146503  0.08959081  0.55240649    -0.63800
N1691       N  0.96602668  0.03903014  0.57044540    -0.06300
N1692       N  0.94220779  0.04649472  0.59508408    -0.63400
N1693       N  0.54772085  0.06638930  0.54488569    -0.05200
N1694       N  0.57191987  0.08968745  0.55156456    -0.64100
Mn1695     Mn  0.50639760  0.00122172  0.57124217     1.10700
C1696       C  0.58692613  0.07727966  0.58259107     0.98900
C1697       C  0.92699278  0.07824178  0.58342609     0.99000
N1698       N  0.95962014  0.04340792  0.93266436    -0.06400
N1699       N  0.93515233  0.05034126  0.90833656    -0.61700
N1700       N  0.54175998  0.06175875  0.95742150    -0.05700
N1701       N  0.56289063  0.08804581  0.94976461    -0.58500
N1702       N  0.54260343  0.03761431  0.93172437    -0.07000
N1703       N  0.56443164  0.04735792  0.90612615    -0.61300
N1704       N  0.95862831  0.06816458  0.95763773    -0.06000
N1705       N  0.93329690  0.09258339  0.95057770    -0.58500
Mn1706     Mn  0.00035782  0.49726492  0.93204302     1.20200
Mn1707     Mn  0.50781112  0.07002090  0.50206064     1.10100
Cl1708     Cl  0.50669613  0.00144718  0.50265638    -0.86500
C1709       C  0.91865919  0.08093932  0.91979885     0.95900
C1710       C  0.57705123  0.07895278  0.91777333     0.95700
C1711       C  0.66973970  0.17286590  0.83259254    -0.03000
C1712       C  0.67299938  0.33357611  0.82675177    -0.03000
C1713       C  0.67458944  0.32915265  0.67019290    -0.03000
C1714       C  0.67690268  0.16723524  0.67078609    -0.03000
C1715       C  0.82054375  0.17170647  0.83253944    -0.03000
C1716       C  0.82877517  0.16773166  0.66999164    -0.03000
C1717       C  0.83099322  0.32668135  0.66380815    -0.03000
C1718       C  0.83038634  0.33064667  0.82494575    -0.03000
C1719       C  0.82804755  0.36393115  0.76253063    -0.26800
C1720       C  0.84263213  0.33473309  0.78386862    -0.14900
C1721       C  0.86326518  0.30916114  0.76413717     0.35800
C1722       C  0.85992671  0.30688671  0.72670985    -0.26300
C1723       C  0.84036382  0.33227019  0.70543638    -0.15500
C1724       C  0.82762250  0.36343318  0.72440125     0.36800
N1725       N  0.81437307  0.39488764  0.70494469    -0.89700
H1726       H  0.81505622  0.38666423  0.77567598     0.18000
H1727       H  0.87501287  0.28513019  0.71580226     0.17900
N1728       N  0.89079209  0.28757542  0.78026023    -0.88800
H1729       H  0.82996135  0.41641828  0.71135804     0.35300
H1730       H  0.78931798  0.40169001  0.71392540     0.40400
H1731       H  0.91437031  0.29504738  0.76892163     0.40000
H1732       H  0.88727349  0.26046397  0.77394276     0.34900
C1733       C  0.80569934  0.23008379  0.64384358    -0.26800
C1734       C  0.83299155  0.20889426  0.65943928    -0.14900
C1735       C  0.86486899  0.22698779  0.66521356     0.35800
C1736       C  0.86693564  0.26459170  0.65762834    -0.26300
C1737       C  0.83648029  0.28588093  0.65080100    -0.15500
C1738       C  0.80917895  0.26638540  0.63505511     0.36800
N1739       N  0.78389196  0.28329519  0.61115629    -0.89700
H1740       H  0.78033036  0.22028773  0.63927643     0.18000
H1741       H  0.89136354  0.27760660  0.66186545     0.17900
N1742       N  0.89498433  0.20755547  0.67953280    -0.88800
H1743       H  0.75935353  0.27908795  0.62179916     0.35300
H1744       H  0.78532912  0.26981025  0.58668683     0.40400
H1745       H  0.90191290  0.21968227  0.70357525     0.40000
H1746       H  0.91550592  0.21033679  0.66145791     0.34900
C1747       C  0.85762488  0.15379439  0.77330670    -0.26800
C1748       C  0.82828164  0.17071866  0.79047559    -0.14900
C1749       C  0.80431783  0.18914375  0.76717653     0.35800
C1750       C  0.80779965  0.18914032  0.73002261    -0.26300
C1751       C  0.83354140  0.16837801  0.71230878    -0.15500
C1752       C  0.86023083  0.15195989  0.73484319     0.36800
N1753       N  0.89079571  0.13509183  0.71956043    -0.89700
H1754       H  0.87885107  0.14196261  0.78928673     0.18000
H1755       H  0.78762731  0.20370125  0.71442528     0.17900
N1756       N  0.77336784  0.20533333  0.78100747    -0.88800
H1757       H  0.89347732  0.10867559  0.72990573     0.35300
H1758       H  0.91234311  0.14895563  0.72838786     0.40400
H1759       H  0.75319736  0.19151744  0.76937076     0.40000
H1760       H  0.77194045  0.23143590  0.77118819     0.34900
C1761       C  0.85846297  0.22827660  0.83880587    -0.26800
C1762       C  0.82482484  0.21318964  0.84075806    -0.14900
C1763       C  0.79754907  0.23779260  0.85084325     0.35800
C1764       C  0.80364292  0.27421397  0.85555020    -0.26300
C1765       C  0.83331921  0.29011956  0.84109042    -0.15500
C1766       C  0.86297481  0.26625321  0.84261778     0.36800
N1767       N  0.89677299  0.27994982  0.84969947    -0.89700
H1768       H  0.88120917  0.21037036  0.83528751     0.18000
H1769       H  0.78222032  0.29060797  0.86596368     0.17900
N1770       N  0.76259460  0.22772025  0.85415284    -0.88800
H1771       H  0.91556505  0.25863292  0.85059144     0.35300
H1772       H  0.89611602  0.29104532  0.87534471     0.40400
H1773       H  0.74710708  0.24405766  0.83678503     0.40000
H1774       H  0.75554117  0.23237854  0.88075697     0.34900
C1775       C  0.77304647  0.13394329  0.68793335    -0.26800
C1776       C  0.79064867  0.15360956  0.66138181    -0.14900
C1777       C  0.77070390  0.15846946  0.62866461     0.35800
C1778       C  0.73358214  0.15879658  0.63026041    -0.26300
C1779       C  0.71617911  0.15366776  0.66318014    -0.15500
C1780       C  0.73655499  0.13250495  0.68825264     0.36800
N1781       N  0.72069634  0.10703385  0.71169319    -0.89700
H1782       H  0.78770120  0.11977222  0.70882846     0.18000
H1783       H  0.71862765  0.16363488  0.60584948     0.17900
N1784       N  0.78620823  0.16480499  0.59423608    -0.88800
H1785       H  0.72749655  0.11272207  0.73788657     0.35300
H1786       H  0.73110443  0.08117931  0.70594717     0.40400
H1787       H  0.81309871  0.16537994  0.59620676     0.40000
H1788       H  0.77724951  0.19021709  0.58452015     0.34900
C1789       C  0.64505210  0.26744353  0.68579345    -0.26800
C1790       C  0.66725448  0.28775060  0.66413840    -0.14900
C1791       C  0.68342809  0.26830709  0.63526321     0.35800
C1792       C  0.68736974  0.23010622  0.63727196    -0.26300
C1793       C  0.67001712  0.20960073  0.66351368    -0.15500
C1794       C  0.64381589  0.22968497  0.68288575     0.36800
N1795       N  0.61552671  0.21184601  0.69950413    -0.89700
H1796       H  0.62719743  0.27978177  0.70429535     0.18000
H1797       H  0.70263627  0.21737649  0.61681751     0.17900
N1798       N  0.69704098  0.28738480  0.60474912    -0.88800
H1799       H  0.59221180  0.22268612  0.68842432     0.35300
H1800       H  0.61565254  0.21793879  0.72674944     0.40400
H1801       H  0.67610393  0.29978506  0.59070205     0.40000
H1802       H  0.70885107  0.26931739  0.58671780     0.34900
C1803       C  0.73209164  0.35369046  0.64054665    -0.26800
C1804       C  0.71518335  0.33006510  0.66479734    -0.14900
C1805       C  0.73732626  0.30757187  0.68740462     0.35800
C1806       C  0.77290016  0.31069101  0.68702906    -0.26300
C1807       C  0.79032847  0.33382714  0.66354966    -0.15500
C1808       C  0.76912422  0.35658657  0.64050665     0.36800
N1809       N  0.78441614  0.38212487  0.61680273    -0.89700
H1810       H  0.71689388  0.37022126  0.62160702     0.18000
H1811       H  0.78812484  0.29108676  0.70303228     0.17900
N1812       N  0.72511965  0.27966258  0.71064653    -0.88800
H1813       H  0.77438210  0.40792301  0.62327612     0.35300
H1814       H  0.77632285  0.37672253  0.59065599     0.40400
H1815       H  0.71898130  0.25718811  0.69590800     0.40000
H1816       H  0.70485566  0.28886008  0.72702987     0.34900
C1817       C  0.68945854  0.36460564  0.76670374    -0.26800
C1818       C  0.66450478  0.34555513  0.78612191    -0.14900
C1819       C  0.63318757  0.34168517  0.76623264     0.35800
C1820       C  0.63492710  0.34000924  0.72783511    -0.26300
C1821       C  0.66704654  0.34374595  0.70959789    -0.15500
C1822       C  0.69176262  0.36328387  0.72966683     0.36800
N1823       N  0.71991927  0.38180079  0.71364528    -0.89700
H1824       H  0.70967282  0.37882165  0.78025509     0.18000
H1825       H  0.61151783  0.33562662  0.71246872     0.17900
N1826       N  0.60004981  0.34339383  0.78402095    -0.88800
H1827       H  0.74296131  0.37083571  0.72514185     0.35300
H1828       H  0.71768864  0.40907865  0.72071568     0.40400
H1829       H  0.57984884  0.34125985  0.76534365     0.40000
H1830       H  0.59691397  0.36902044  0.79534159     0.34900
C1831       C  0.73350099  0.31504364  0.80680959    -0.26800
C1832       C  0.71412824  0.33633025  0.83097566    -0.14900
C1833       C  0.73367955  0.35957896  0.85303990     0.35800
C1834       C  0.77073813  0.36119414  0.84903758    -0.26300
C1835       C  0.78947401  0.33992864  0.82353481    -0.15500
C1836       C  0.76893927  0.31876740  0.80062298     0.36800
N1837       N  0.78456427  0.29900003  0.77170827    -0.89700
H1838       H  0.71964240  0.29704036  0.78985475     0.18000
H1839       H  0.78471214  0.37808807  0.86707648     0.17900
N1840       N  0.71701860  0.38008329  0.88082366    -0.88800
H1841       H  0.76567703  0.28654263  0.75722999     0.35300
H1842       H  0.80125781  0.27844394  0.78204276     0.40400
H1843       H  0.72245413  0.40730724  0.87672583     0.40000
H1844       H  0.72823145  0.37166680  0.90535609     0.34900
C1845       C  0.64444391  0.14754123  0.77110040    -0.26800
C1846       C  0.66500525  0.17205391  0.79010392    -0.14900
C1847       C  0.68481900  0.19526152  0.76825274     0.35800
C1848       C  0.69208037  0.18672819  0.73288071    -0.26300
C1849       C  0.67163816  0.16360986  0.71292597    -0.15500
C1850       C  0.64635081  0.14434032  0.73286218     0.36800
N1851       N  0.62182639  0.12264176  0.71511380    -0.89700
H1852       H  0.62590215  0.13159185  0.78538344     0.18000
H1853       H  0.71101637  0.20263443  0.71914259     0.17900
N1854       N  0.69242283  0.23092073  0.77946406    -0.88800
H1855       H  0.59673732  0.13284385  0.72111626     0.35300
H1856       H  0.62457457  0.09629316  0.72565843     0.40400
H1857       H  0.67555900  0.24871561  0.76495687     0.40000
H1858       H  0.71695914  0.23777608  0.77137701     0.34900
C1859       C  0.72844215  0.14003010  0.81373123    -0.26800
C1860       C  0.70907648  0.15878919  0.84044043    -0.14900
C1861       C  0.72748464  0.15951624  0.87380443     0.35800
C1862       C  0.76494885  0.15895314  0.87365736    -0.26300
C1863       C  0.78320542  0.15596947  0.84056506    -0.15500
C1864       C  0.76495750  0.13632081  0.81504054     0.36800
N1865       N  0.78311116  0.11276528  0.79078783    -0.89700
H1866       H  0.71535805  0.12784291  0.79176112     0.18000
H1867       H  0.77872249  0.16525577  0.89800345     0.17900
N1868       N  0.70901410  0.15913412  0.90715326    -0.88800
H1869       H  0.77717347  0.12192127  0.76496748     0.35300
H1870       H  0.77354695  0.08685030  0.79396779     0.40400
H1871       H  0.71553415  0.13447508  0.92010989     0.40000
H1872       H  0.71839767  0.17934568  0.92349614     0.34900
C1873       C  0.68370422  0.23423162  0.86482849    -0.26800
C1874       C  0.66223359  0.21426022  0.84249107    -0.14900
C1875       C  0.63461523  0.23524308  0.82574172     0.35800
C1876       C  0.63747859  0.27312938  0.82059979    -0.26300
C1877       C  0.66563134  0.29200662  0.83505993    -0.15500
C1878       C  0.68416810  0.27240756  0.86280481     0.36800
N1879       N  0.70131062  0.29147358  0.89063685    -0.89700
H1880       H  0.69946083  0.22112698  0.88500381     0.18000
H1881       H  0.61755485  0.28635833  0.80472323     0.17900
N1882       N  0.60479910  0.21794346  0.81189413    -0.88800
H1883       H  0.69057055  0.28404294  0.91528981     0.35300
H1884       H  0.72770278  0.28386860  0.89120920     0.40400
H1885       H  0.60232695  0.22454181  0.78465635     0.40000
H1886       H  0.58275012  0.22894448  0.82479847     0.34900
C1887       C  0.62384056  0.08765005  0.87174552    -0.26800
C1888       C  0.60004537  0.10290795  0.89629547    -0.14900
C1889       C  0.59831990  0.14108092  0.89936897     0.35800
C1890       C  0.62017425  0.16252118  0.87870480    -0.26300
C1891       C  0.64456780  0.14773630  0.85385265    -0.15500
C1892       C  0.64613495  0.10921264  0.85112837     0.36800
N1893       N  0.67055486  0.09136671  0.82771867    -0.89700
H1894       H  0.62568608  0.05849508  0.86889379     0.18000
H1895       H  0.61763313  0.19130241  0.88307896     0.17900
N1896       N  0.57401054  0.15942676  0.92265469    -0.88800
H1897       H  0.65675247  0.07569714  0.80984459     0.35300
H1898       H  0.68678112  0.07384771  0.84325892     0.40400
H1899       H  0.58001360  0.15219670  0.94926328     0.40000
H1900       H  0.54881233  0.15179228  0.91631624     0.34900
C1901       C  0.62510693  0.33637500  0.62278519    -0.26800
C1902       C  0.65129549  0.35270000  0.64344150    -0.14900
C1903       C  0.65206916  0.39115955  0.64119986     0.35800
C1904       C  0.62845513  0.41108999  0.61887307    -0.26300
C1905       C  0.60358638  0.39402581  0.59829410    -0.15500
C1906       C  0.60224673  0.35611528  0.60016988     0.36800
N1907       N  0.57675872  0.33667031  0.58092517    -0.89700
H1908       H  0.62099675  0.30769528  0.62399766     0.18000
H1909       H  0.62928331  0.44038112  0.61810267     0.17900
N1910       N  0.67589110  0.41070933  0.66221725    -0.88800
H1911       H  0.58065487  0.34038168  0.55338513     0.35300
H1912       H  0.55185124  0.34672385  0.58783715     0.40400
H1913       H  0.66144253  0.42830431  0.67873900     0.40000
H1914       H  0.69064141  0.42643287  0.64489358     0.34900
C1915       C  0.87469833  0.15844030  0.62005735    -0.26800
C1916       C  0.85560791  0.14337198  0.64876053    -0.14900
C1917       C  0.85927316  0.10518175  0.65376991     0.35800
C1918       C  0.88251982  0.08443976  0.63222797    -0.26300
C1919       C  0.90183129  0.10053276  0.60473009    -0.15500
C1920       C  0.89748749  0.13820425  0.59885539     0.36800
N1921       N  0.91590615  0.15746096  0.57169141    -0.89700
H1922       H  0.87119730  0.18642201  0.61179325     0.18000
H1923       H  0.88514447  0.05543231  0.63687388     0.17900
N1924       N  0.83912470  0.08697762  0.68015201    -0.88800
H1925       H  0.90883131  0.14827786  0.54638951     0.35300
H1926       H  0.94274028  0.15348732  0.57600701     0.40400
H1927       H  0.85613775  0.07196206  0.69719020     0.40000
H1928       H  0.82371422  0.06867176  0.66687425     0.34900
C1929       C  0.65588662  0.10617111  0.64933077    -0.26800
C1930       C  0.65243040  0.14448817  0.64701109    -0.14900
C1931       C  0.62804400  0.15930506  0.62077992     0.35800
C1932       C  0.60833486  0.13645584  0.59993784    -0.26300
C1933       C  0.61104373  0.09889312  0.60389066    -0.15500
C1934       C  0.63529271  0.08354955  0.62865963     0.36800
N1935       N  0.63961613  0.04501756  0.63253091    -0.89700
H1936       H  0.67426848  0.09332623  0.66792943     0.18000
H1937       H  0.58980407  0.14870095  0.58082301     0.17900
N1938       N  0.62236324  0.19735162  0.61427194    -0.88800
H1939       H  0.63488137  0.03809746  0.65934709     0.35300
H1940       H  0.66561259  0.03765309  0.62692979     0.40400
H1941       H  0.62798878  0.20300721  0.58735819     0.40000
H1942       H  0.59603502  0.20424930  0.61868844     0.34900
C1943       C  0.87307608  0.37531239  0.90873890    -0.26800
C1944       C  0.89608562  0.39942440  0.89292970    -0.14900
C1945       C  0.89578121  0.40300935  0.85522599     0.35800
C1946       C  0.87428219  0.38166389  0.83429629    -0.26300
C1947       C  0.85138875  0.35649223  0.84951650    -0.15500
C1948       C  0.85053345  0.35461743  0.88781273     0.36800
N1949       N  0.82736359  0.33120683  0.90596630    -0.89700
H1950       H  0.87249557  0.37242073  0.93772971     0.18000
H1951       H  0.87659745  0.38522548  0.80564710     0.21100
N1952       N  0.91830508  0.42750764  0.83756071    -0.88800
H1953       H  0.81146611  0.34690215  0.92294183     0.35300
H1954       H  0.84230997  0.31285495  0.92190674     0.40400
H1955       H  0.90284276  0.44577432  0.82203331     0.40000
H1956       H  0.93456484  0.41261922  0.82024362     0.34900
C1957       C  0.88078900  0.13617948  0.91093968    -0.26800
C1958       C  0.89148795  0.10188543  0.89883988    -0.14900
C1959       C  0.87625442  0.08909967  0.86694890     0.35800
C1960       C  0.85358158  0.11198340  0.84670795    -0.26300
C1961       C  0.84584017  0.14808336  0.85647212    -0.15500
C1962       C  0.85729463  0.15864740  0.89119710     0.36800
N1963       N  0.84415699  0.19115741  0.90781442    -0.89700
H1964       H  0.89034888  0.14574731  0.93637300     0.18000
H1965       H  0.84234097  0.10132309  0.82262312     0.17900
N1966       N  0.88269914  0.05301568  0.85437230    -0.88800
H1967       H  0.86527841  0.20697243  0.91399654     0.35300
H1968       H  0.83211151  0.18410708  0.93191093     0.40400
H1969       H  0.87659265  0.03466800  0.87481257     0.40000
H1970       H  0.90896222  0.04952610  0.84748658     0.34900
C1971       C  0.62656458  0.41757317  0.87063971    -0.26800
C1972       C  0.60890607  0.40153150  0.89910843    -0.14900
C1973       C  0.61343831  0.36404718  0.90525478     0.35800
C1974       C  0.63365547  0.34315869  0.88187790    -0.26300
C1975       C  0.65155445  0.35842115  0.85255328    -0.15500
C1976       C  0.64816385  0.39677483  0.84783804     0.36800
N1977       N  0.66623185  0.41510694  0.81993229    -0.89700
H1978       H  0.62351747  0.44653896  0.86585337     0.18000
H1979       H  0.63442044  0.31451371  0.88758297     0.17900
N1980       N  0.59661681  0.34641321  0.93461003    -0.88800
H1981       H  0.68159936  0.43449418  0.83159049     0.35300
H1982       H  0.64772305  0.42868433  0.80336170     0.40400
H1983       H  0.61583583  0.33316548  0.95057029     0.40000
H1984       H  0.58058095  0.32689205  0.92419543     0.34900
C1985       C  0.87644349  0.37630953  0.65495655    -0.26800
C1986       C  0.85347977  0.35182858  0.63925789    -0.14900
C1987       C  0.85536085  0.34900026  0.60103088     0.35800
C1988       C  0.87834986  0.37014918  0.58081677    -0.26300
C1989       C  0.89983623  0.39488222  0.59720060    -0.15500
C1990       C  0.89837937  0.39798942  0.63472750     0.36800
N1991       N  0.92030995  0.42222432  0.65306171    -0.89700
H1992       H  0.87890327  0.37890292  0.68357229     0.18000
H1993       H  0.87944949  0.36696395  0.55194854     0.17900
N1994       N  0.83511245  0.32382087  0.58218656    -0.88800
H1995       H  0.93610758  0.40707734  0.67120091     0.35300
H1996       H  0.90435815  0.44020141  0.66771182     0.40400
H1997       H  0.85223073  0.30562048  0.56918900     0.40000
H1998       H  0.82035370  0.33796275  0.56247216     0.34900
N1999       N  0.96258855  0.95348415  0.06773708    -0.06600
N2000       N  0.93982986  0.94504971  0.09288303    -0.58700
N2001       N  0.54542506  0.92229017  0.03899562    -0.06300
N2002       N  0.57097098  0.89761880  0.04460280    -0.60900
N2003       N  0.54595254  0.94735238  0.06365164    -0.05900
N2004       N  0.57179035  0.94041682  0.08631311    -0.58700
N2005       N  0.96356823  0.92874200  0.04265739    -0.05600
N2006       N  0.94179211  0.90292679  0.05050124    -0.61200
C2007       C  0.92673992  0.91353269  0.08173511     0.95600
C2008       C  0.58748231  0.90961528  0.07407081     0.95300
N2009       N  0.54731366  0.95684798  0.43683832    -0.06800
N2010       N  0.57205914  0.94952208  0.41336036    -0.59300
N2011       N  0.96706575  0.93106201  0.45872842    -0.04900
N2012       N  0.94350626  0.90717328  0.45088469    -0.60600
N2013       N  0.96699453  0.95701728  0.43417811    -0.06800
N2014       N  0.94347118  0.95126188  0.40917988    -0.59600
N2015       N  0.54698924  0.93127902  0.46174663    -0.04600
N2016       N  0.57165157  0.90595566  0.45562132    -0.60600
Mn2017     Mn  0.00722859  0.92868104  0.50137008     1.18400
C2018       C  0.58736008  0.91796159  0.42543274     0.97700
C2019       C  0.92882223  0.92019112  0.41984466     0.98300
N2020       N  0.53618717  0.54073772  0.06848237    -0.06800
N2021       N  0.55848163  0.54763482  0.09437343    -0.63100
N2022       N  0.95988840  0.56405328  0.04437041    -0.05600
N2023       N  0.93587459  0.58941465  0.05187238    -0.63800
N2024       N  0.96006633  0.53815652  0.06898909    -0.06300
N2025       N  0.93607561  0.54524673  0.09353032    -0.63400
N2026       N  0.53582652  0.56669384  0.04382809    -0.05200
N2027       N  0.55780281  0.59172655  0.05265945    -0.64100
Mn2028     Mn  0.49827521  0.49719936  0.06740787     1.10700
C2029       C  0.57199263  0.57944435  0.08421104     0.98900
C2030       C  0.92111139  0.57734539  0.08254383     0.99000
N2031       N  0.96312371  0.54201365  0.42883400    -0.06400
N2032       N  0.93999642  0.55148866  0.40366545    -0.61700
N2033       N  0.54268849  0.56945745  0.46166477    -0.05700
N2034       N  0.56699466  0.59282706  0.45485558    -0.58500
N2035       N  0.54231177  0.54507741  0.43633176    -0.07000
N2036       N  0.56621114  0.55140312  0.41195497    -0.61300
N2037       N  0.96217296  0.56579744  0.45484540    -0.06000
N2038       N  0.93808231  0.59156028  0.44816545    -0.58500
Mn2039     Mn  0.00641870  0.99912949  0.43416965     1.20200
Mn2040     Mn  0.49624432  0.56857038  0.00039207     1.10100
Cl2041     Cl  0.49933443  0.49972061  0.99897888    -0.86500
C2042       C  0.92429932  0.58211725  0.41638951     0.95900
C2043       C  0.58166288  0.58118878  0.42382477     0.95700
C2044       C  0.67662035  0.66386486  0.33144922    -0.03000
C2045       C  0.67852244  0.83013052  0.32908400    -0.03000
C2046       C  0.67732896  0.82180462  0.17294195    -0.03000
C2047       C  0.67137599  0.66162361  0.16896325    -0.03000
C2048       C  0.82162847  0.67354303  0.33424762    -0.03000
C2049       C  0.81856608  0.66052711  0.17138537    -0.03000
C2050       C  0.83488342  0.82330018  0.17224751    -0.03000
C2051       C  0.83756902  0.83342505  0.32948827    -0.03000
C2052       C  0.82976395  0.86657406  0.26815428    -0.26800
C2053       C  0.84900497  0.83987252  0.28849934    -0.14900
C2054       C  0.87611758  0.82216514  0.26845138     0.35800
C2055       C  0.87499103  0.82328622  0.23022380    -0.26300
C2056       C  0.84475904  0.83606531  0.21168564    -0.15500
C2057       C  0.82495867  0.86308567  0.23102436     0.36800
N2058       N  0.79917416  0.88677195  0.21408251    -0.89700
H2059       H  0.81387185  0.88708654  0.28164843     0.18000
H2060       H  0.89730737  0.81298732  0.21530310     0.17900
N2061       N  0.90634319  0.80623248  0.28551310    -0.88800
H2062       H  0.77542520  0.88273245  0.22680335     0.35300
H2063       H  0.80578776  0.91349983  0.21854375     0.40400
H2064       H  0.92798000  0.82011522  0.27671913     0.40000
H2065       H  0.90936977  0.77949285  0.27685475     0.34900
C2066       C  0.80991621  0.72703633  0.14194571    -0.26800
C2067       C  0.82668243  0.70262475  0.16654301    -0.14900
C2068       C  0.85432089  0.71761568  0.18659667     0.35800
C2069       C  0.85786197  0.75529741  0.18838286    -0.26300
C2070       C  0.83917773  0.78031772  0.16566373    -0.15500
C2071       C  0.81914317  0.76384573  0.13832104     0.36800
N2072       N  0.80600867  0.78529507  0.10823130    -0.89700
H2073       H  0.78965311  0.71835576  0.12502385     0.18000
H2074       H  0.87680956  0.76303712  0.20729985     0.17900
N2075       N  0.87908675  0.69455162  0.20595877    -0.88800
H2076       H  0.79236989  0.76935974  0.09047521     0.35300
H2077       H  0.82731274  0.79427970  0.09380828     0.40400
H2078       H  0.87833958  0.70166126  0.23303545     0.40000
H2079       H  0.90398066  0.69947057  0.19621616     0.34900
C2080       C  0.83740498  0.63612154  0.27478585    -0.26800
C2081       C  0.81945180  0.66559897  0.29201606    -0.14900
C2082       C  0.79638842  0.68605868  0.26907396     0.35800
C2083       C  0.79581925  0.68097197  0.23177580    -0.26300
C2084       C  0.81866721  0.65655912  0.21398643    -0.15500
C2085       C  0.83978973  0.63336396  0.23670681     0.36800
N2086       N  0.86485287  0.60804640  0.22217135    -0.89700
H2087       H  0.85100474  0.61524797  0.29053937     0.18000
H2088       H  0.77765512  0.69765271  0.21571291     0.17900
N2089       N  0.77109631  0.71055236  0.28365490    -0.88800
H2090       H  0.85998795  0.58242636  0.23282048     0.35300
H2091       H  0.88953870  0.61490702  0.23113223     0.40400
H2092       H  0.75130156  0.69525763  0.29430925     0.40000
H2093       H  0.75988517  0.72717897  0.26368200     0.34900
C2094       C  0.86298704  0.72930058  0.34075402    -0.26800
C2095       C  0.82830154  0.71593077  0.34070812    -0.14900
C2096       C  0.80247582  0.74351041  0.35019910     0.35800
C2097       C  0.81246280  0.77744049  0.36045919    -0.26300
C2098       C  0.84139679  0.79253285  0.34422529    -0.15500
C2099       C  0.86986568  0.76700058  0.34260034     0.36800
N2100       N  0.90487909  0.77696208  0.35020497    -0.89700
H2101       H  0.88547540  0.71119837  0.34176209     0.18000
H2102       H  0.79260893  0.79448974  0.37299473     0.17900
N2103       N  0.76578746  0.74127254  0.34519539    -0.88800
H2104       H  0.91281338  0.76373271  0.37407262     0.35300
H2105       H  0.90542814  0.80458736  0.35545126     0.40400
H2106       H  0.75804508  0.75966223  0.32510425     0.40000
H2107       H  0.75363784  0.75112257  0.36823759     0.34900
C2108       C  0.76293458  0.62318776  0.18055633    -0.26800
C2109       C  0.78085778  0.64837037  0.15875362    -0.14900
C2110       C  0.76300188  0.65629800  0.12536978     0.35800
C2111       C  0.72582906  0.65490149  0.12435897    -0.26300
C2112       C  0.70746661  0.64327215  0.15519241    -0.15500
C2113       C  0.72714728  0.61753303  0.17599248     0.36800
N2114       N  0.71032732  0.58999015  0.19633639    -0.89700
H2115       H  0.77627125  0.60837473  0.20210979     0.18000
H2116       H  0.71188909  0.66736445  0.10183710     0.17900
N2117       N  0.78089441  0.66261535  0.09217489    -0.88800
H2118       H  0.72867257  0.57467666  0.21161504     0.35300
H2119       H  0.70013124  0.57220114  0.17785925     0.40400
H2120       H  0.80762358  0.66427788  0.09633605     0.40000
H2121       H  0.77135222  0.68697548  0.08049908     0.34900
C2122       C  0.63907473  0.76465326  0.16410204    -0.26800
C2123       C  0.67102382  0.78175931  0.16054360    -0.14900
C2124       C  0.69806847  0.75936574  0.14637340     0.35800
C2125       C  0.69941972  0.72266112  0.15476877    -0.26300
C2126       C  0.66924041  0.70396985  0.16282051    -0.15500
C2127       C  0.63786211  0.72618761  0.16544961     0.36800
N2128       N  0.60477295  0.71041838  0.16964474    -0.89700
H2129       H  0.61526044  0.78094225  0.16773403     0.18000
H2130       H  0.72509314  0.71017921  0.15562124     0.17900
N2131       N  0.72431074  0.77339775  0.12359755    -0.88800
H2132       H  0.58925338  0.71839641  0.14753796     0.35300
H2133       H  0.59300222  0.72169506  0.19238146     0.40400
H2134       H  0.72330887  0.76007266  0.09907057     0.40000
H2135       H  0.74826744  0.76651333  0.13546950     0.34900
C2136       C  0.73522129  0.85130081  0.14914160    -0.26800
C2137       C  0.71811675  0.82690299  0.17246292    -0.14900
C2138       C  0.74038869  0.80477527  0.19550261     0.35800
C2139       C  0.77617005  0.80743822  0.19432323    -0.26300
C2140       C  0.79379336  0.82920946  0.16997048    -0.15500
C2141       C  0.77240273  0.85157695  0.14659511     0.36800
N2142       N  0.78750605  0.87390497  0.11972131    -0.89700
H2143       H  0.72010321  0.86969383  0.13183826     0.18000
H2144       H  0.79147715  0.78852169  0.21080113     0.17900
N2145       N  0.72871886  0.77638549  0.21872280    -0.88800
H2146       H  0.77890345  0.90069715  0.12405646     0.35300
H2147       H  0.77811542  0.86626004  0.09468148     0.40400
H2148       H  0.73998401  0.75201103  0.20959461     0.40000
H2149       H  0.70224971  0.77292081  0.21827348     0.34900
C2150       C  0.67950150  0.86447573  0.26746869    -0.26800
C2151       C  0.66593457  0.83665927  0.28904044    -0.14900
C2152       C  0.64262389  0.81389866  0.27122474     0.35800
C2153       C  0.64631333  0.80847059  0.23443958    -0.26300
C2154       C  0.66790782  0.83010048  0.21312067    -0.15500
C2155       C  0.67982519  0.86181723  0.22983256     0.36800
N2156       N  0.69264005  0.89103345  0.20868191    -0.89700
H2157       H  0.69245048  0.88659931  0.27990001     0.18000
H2158       H  0.63080468  0.78798220  0.22351924     0.17900
N2159       N  0.61392294  0.79764025  0.28899967    -0.88800
H2160       H  0.71791991  0.89581872  0.21726110     0.35300
H2161       H  0.67708473  0.91424064  0.21388793     0.40400
H2162       H  0.61066995  0.80755679  0.31481712     0.40000
H2163       H  0.61842094  0.76959681  0.29026873     0.34900
C2164       C  0.74049912  0.82705170  0.30167048    -0.26800
C2165       C  0.71964690  0.83969043  0.33023928    -0.14900
C2166       C  0.73882650  0.86166701  0.35457770     0.35800
C2167       C  0.77637432  0.86255723  0.35308695    -0.26300
C2168       C  0.79626930  0.84153943  0.32831876    -0.15500
C2169       C  0.77652315  0.82288086  0.30270315     0.36800
N2170       N  0.79279694  0.79949002  0.27645081    -0.89700
H2171       H  0.72933552  0.82006323  0.27647268     0.18000
H2172       H  0.78971025  0.87874162  0.37233284     0.17900
N2173       N  0.72133938  0.88540586  0.37911830    -0.88800
H2174       H  0.77388274  0.78431369  0.26468796     0.35300
H2175       H  0.80887597  0.77953625  0.28851059     0.40400
H2176       H  0.72792117  0.91191685  0.37284417     0.40000
H2177       H  0.73073060  0.87908603  0.40497175     0.34900
C2178       C  0.64143969  0.65433885  0.27198034    -0.26800
C2179       C  0.67431010  0.65206393  0.29007307    -0.14900
C2180       C  0.70337532  0.64887707  0.26626702     0.35800
C2181       C  0.69971014  0.66058051  0.23067406    -0.26300
C2182       C  0.66865673  0.65758340  0.21149035    -0.15500
C2183       C  0.63835973  0.65398670  0.23355487     0.36800
N2184       N  0.60438704  0.65140237  0.21814225    -0.89700
H2185       H  0.61786436  0.65652475  0.28781579     0.18000
H2186       H  0.72281227  0.66920685  0.21725502     0.17900
N2187       N  0.73431231  0.62782189  0.27451108    -0.88800
H2188       H  0.58807721  0.67165567  0.22914300     0.35300
H2189       H  0.59472135  0.62663493  0.22649703     0.40400
H2190       H  0.75319640  0.63017639  0.25473885     0.40000
H2191       H  0.72748369  0.60073651  0.27411517     0.34900
C2192       C  0.73427912  0.62437323  0.34368030    -0.26800
C2193       C  0.71381307  0.65644163  0.34905942    -0.14900
C2194       C  0.72960051  0.67929447  0.37427575     0.35800
C2195       C  0.76634522  0.67879273  0.37650343    -0.26300
C2196       C  0.78592529  0.66033037  0.35012495    -0.15500
C2197       C  0.77115554  0.62703930  0.34130532     0.36800
N2198       N  0.79279684  0.59681317  0.33019496    -0.89700
H2199       H  0.72224443  0.59992714  0.33530437     0.18000
H2200       H  0.77866220  0.69636434  0.39529552     0.17900
N2201       N  0.70938529  0.69982325  0.39960106    -0.88800
H2202       H  0.78457787  0.58875707  0.30489252     0.35300
H2203       H  0.78906347  0.57539821  0.34823104     0.40400
H2204       H  0.71695076  0.69116926  0.42544835     0.40000
H2205       H  0.71389945  0.72728251  0.39723768     0.34900
C2206       C  0.64932389  0.72830437  0.35618123    -0.26800
C2207       C  0.66877056  0.70726811  0.33088465    -0.14900
C2208       C  0.68403359  0.72912668  0.30457319     0.35800
C2209       C  0.69190345  0.76464506  0.31092203    -0.26300
C2210       C  0.67551965  0.78684024  0.33668577    -0.15500
C2211       C  0.65228873  0.76674209  0.35969713     0.36800
N2212       N  0.63007287  0.78282771  0.38626903    -0.89700
H2213       H  0.62995941  0.71611064  0.37261680     0.18000
H2214       H  0.70411287  0.77608094  0.28843156     0.17900
N2215       N  0.68083695  0.72059105  0.26766148    -0.88800
H2216       H  0.61424448  0.80392029  0.37550352     0.35300
H2217       H  0.64479777  0.79014988  0.40836138     0.40400
H2218       H  0.70443653  0.72451093  0.25504605     0.40000
H2219       H  0.66169518  0.73756026  0.25547684     0.34900
C2220       C  0.61816104  0.58720211  0.36906381    -0.26800
C2221       C  0.60753463  0.60103583  0.40233151    -0.14900
C2222       C  0.62182158  0.63343226  0.41367752     0.35800
C2223       C  0.64428321  0.65167759  0.39108615    -0.26300
C2224       C  0.65179736  0.64102714  0.35551380    -0.15500
C2225       C  0.64067799  0.60587610  0.34628752     0.36800
N2226       N  0.65369308  0.58736817  0.31526606    -0.89700
H2227       H  0.60935961  0.56118132  0.36059368     0.18000
H2228       H  0.65550502  0.67465718  0.40263073     0.17900
N2229       N  0.61446657  0.64884111  0.44805252    -0.88800
H2230       H  0.63243798  0.58060626  0.29940948     0.35300
H2231       H  0.66670103  0.56330402  0.32378478     0.40400
H2232       H  0.62146494  0.62982033  0.46814960     0.40000
H2233       H  0.58785137  0.65583641  0.44952746     0.34900
C2234       C  0.66118036  0.84614079  0.10990137    -0.26800
C2235       C  0.65457760  0.84696586  0.14734958    -0.14900
C2236       C  0.62386082  0.86728936  0.15848130     0.35800
C2237       C  0.60387268  0.88737959  0.13358860    -0.26300
C2238       C  0.61136792  0.88725495  0.09714949    -0.15500
C2239       C  0.64009234  0.86598340  0.08490781     0.36800
N2240       N  0.64881199  0.86453255  0.04759889    -0.89700
H2241       H  0.68282892  0.82961565  0.09983950     0.18000
H2242       H  0.58095784  0.90243431  0.14316220     0.17900
N2243       N  0.61075926  0.86686665  0.19443728    -0.88800
H2244       H  0.65250307  0.89092639  0.03830993     0.35300
H2245       H  0.62780214  0.85429660  0.03362316     0.40400
H2246       H  0.58572390  0.85671736  0.19419831     0.40000
H2247       H  0.60900642  0.89344896  0.20371977     0.34900
C2248       C  0.87175376  0.65496225  0.12834865    -0.26800
C2249       C  0.84689838  0.63732822  0.15006773    -0.14900
C2250       C  0.84685833  0.59876997  0.14713757     0.35800
C2251       C  0.87120656  0.58013324  0.12513995    -0.26300
C2252       C  0.89516048  0.59844452  0.10413097    -0.15500
C2253       C  0.89495896  0.63645775  0.10567771     0.36800
N2254       N  0.91840496  0.65747711  0.08496738    -0.89700
H2255       H  0.87333428  0.68398216  0.12718082     0.18000
H2256       H  0.87085441  0.55085344  0.12401843     0.17900
N2257       N  0.82199281  0.57780036  0.16570820    -0.88800
H2258       H  0.91325429  0.65396420  0.05769351     0.35300
H2259       H  0.94402925  0.64856859  0.09090763     0.40400
H2260       H  0.83536532  0.55762881  0.18091835     0.40000
H2261       H  0.80715963  0.56482409  0.14653015     0.34900
C2262       C  0.63217034  0.60817122  0.15987376    -0.26800
C2263       C  0.64319237  0.64206510  0.14741494    -0.14900
C2264       C  0.63221570  0.65332490  0.11219411     0.35800
C2265       C  0.60893755  0.63272421  0.09262695    -0.26300
C2266       C  0.59687211  0.59998000  0.10617120    -0.15500
C2267       C  0.60880286  0.58770977  0.14030181     0.36800
N2268       N  0.59739326  0.55442589  0.15548112    -0.89700
H2269       H  0.64148688  0.59724692  0.18540843     0.18000
H2270       H  0.60071930  0.64237259  0.06616868     0.17900
N2271       N  0.64498472  0.68523190  0.09538538    -0.88800
H2272       H  0.58534743  0.56015468  0.18000285     0.35300
H2273       H  0.61938489  0.53744758  0.16064705     0.40400
H2274       H  0.65696921  0.67780445  0.07127714     0.40000
H2275       H  0.62363657  0.70271766  0.08906546     0.34900
C2276       C  0.88143138  0.87561393  0.41357347    -0.26800
C2277       C  0.90350492  0.90050681  0.39765823    -0.14900
C2278       C  0.90193306  0.90558645  0.36018782     0.35800
C2279       C  0.87943288  0.88549084  0.33945664    -0.26300
C2280       C  0.85785472  0.85907228  0.35456298    -0.15500
C2281       C  0.85845081  0.85546358  0.39277679     0.36800
N2282       N  0.83638096  0.83099435  0.41096134    -0.89700
H2283       H  0.88198698  0.87164427  0.44247267     0.18000
H2284       H  0.88012659  0.89085496  0.31093594     0.21100
N2285       N  0.92433842  0.93016714  0.34244901    -0.88800
H2286       H  0.82093959  0.84574286  0.42911813     0.35300
H2287       H  0.85218816  0.81227989  0.42560182     0.40400
H2288       H  0.90874263  0.94922855  0.32802266     0.40000
H2289       H  0.93972133  0.91553088  0.32414118     0.34900
C2290       C  0.90700348  0.61562466  0.36063487    -0.26800
C2291       C  0.89915947  0.60543905  0.39582650    -0.14900
C2292       C  0.86931841  0.62051618  0.41202606     0.35800
C2293       C  0.84617353  0.64294086  0.39184603    -0.26300
C2294       C  0.85153032  0.65117506  0.35490294    -0.15500
C2295       C  0.88540977  0.64044405  0.34099202     0.36800
N2296       N  0.89997965  0.65441758  0.30817966    -0.89700
H2297       H  0.93155267  0.60615131  0.34907329     0.18000
H2298       H  0.82371443  0.65373206  0.40593778     0.17900
N2299       N  0.86198701  0.61258303  0.44895719    -0.88800
H2300       H  0.92365267  0.66587313  0.31454165     0.35300
H2301       H  0.88467465  0.67547016  0.29675943     0.40400
H2302       H  0.83773098  0.60076660  0.45021787     0.40000
H2303       H  0.86007836  0.63705473  0.46268241     0.34900
C2304       C  0.60597171  0.89839691  0.36601189    -0.26800
C2305       C  0.61153688  0.89593996  0.40281715    -0.14900
C2306       C  0.63905325  0.87312604  0.41611337     0.35800
C2307       C  0.66029687  0.85313872  0.39171602    -0.26300
C2308       C  0.65473189  0.85472186  0.35406985    -0.15500
C2309       C  0.62629804  0.87867744  0.34170753     0.36800
N2310       N  0.61650676  0.88378412  0.30474455    -0.89700
H2311       H  0.58461852  0.91565023  0.35548257     0.18000
H2312       H  0.68144895  0.83567714  0.40222008     0.17900
N2313       N  0.64561433  0.87056278  0.45408970    -0.88800
H2314       H  0.61815035  0.91120158  0.29785784     0.35300
H2315       H  0.59061472  0.87659858  0.30149552     0.40400
H2316       H  0.65281883  0.89604508  0.46256233     0.40000
H2317       H  0.66685058  0.85262746  0.45951007     0.34900
C2318       C  0.85566311  0.88419190  0.14678854    -0.26800
C2319       C  0.85772486  0.84583000  0.14544428    -0.14900
C2320       C  0.88457992  0.83065062  0.12280754     0.35800
C2321       C  0.90520873  0.85321407  0.10138871    -0.26300
C2322       C  0.90235494  0.89105492  0.10314364    -0.15500
C2323       C  0.87739430  0.90649065  0.12647892     0.36800
N2324       N  0.87362524  0.94503376  0.12953830    -0.89700
H2325       H  0.83697353  0.89763155  0.16388508     0.18000
H2326       H  0.92505940  0.84072654  0.08444675     0.17900
N2327       N  0.89306052  0.79257800  0.12240427    -0.88800
H2328       H  0.87770868  0.95154783  0.15641828     0.35300
H2329       H  0.84793619  0.95297428  0.12273396     0.40400
H2330       H  0.91895992  0.78832340  0.13083199     0.40000
H2331       H  0.89112082  0.78367795  0.09597768     0.34900
N2332       N  0.96704350  0.95368208  0.56907948    -0.06600
N2333       N  0.94306105  0.94625481  0.59319525    -0.58700
N2334       N  0.54569936  0.93176167  0.54581889    -0.06300
N2335       N  0.57012159  0.90640159  0.55231652    -0.60900
N2336       N  0.54595360  0.95653325  0.57076675    -0.05900
N2337       N  0.57063175  0.94846027  0.59478247    -0.58700
N2338       N  0.96768055  0.92924787  0.54370690    -0.05600
N2339       N  0.94457780  0.90457845  0.55022959    -0.61200
C2340       C  0.92906806  0.91573450  0.58087363     0.95600
C2341       C  0.58551001  0.91706992  0.58286248     0.95300
N2342       N  0.54378168  0.95062162  0.93103793    -0.06800
N2343       N  0.56907231  0.94369406  0.90779300    -0.59300
N2344       N  0.96250077  0.93247710  0.95657782    -0.04900
N2345       N  0.93991630  0.90767866  0.94899521    -0.60600
N2346       N  0.96150781  0.95817589  0.93162761    -0.06800
N2347       N  0.93786119  0.95136319  0.90682123    -0.59600
N2348       N  0.54313024  0.92467444  0.95553824    -0.04600
N2349       N  0.56786679  0.89976386  0.94964524    -0.60600
Mn2350     Mn  0.00298472  0.92999531  0.99918462     1.18400
C2351       C  0.58395001  0.91184023  0.91989128     0.97700
C2352       C  0.92429598  0.91989018  0.91817959     0.98300
N2353       N  0.54100944  0.54107003  0.57127182    -0.06800
N2354       N  0.56493037  0.54649309  0.59622685    -0.63100
N2355       N  0.96196514  0.56393960  0.53973500    -0.05600
N2356       N  0.93807862  0.58939341  0.54709886    -0.63800
N2357       N  0.96234370  0.53831106  0.56460104    -0.06300
N2358       N  0.93862586  0.54580832  0.58935984    -0.63400
N2359       N  0.54160650  0.56663089  0.54635955    -0.05200
N2360       N  0.56566848  0.58977989  0.55369023    -0.64100
Mn2361     Mn  0.49919551  0.50130068  0.57012516     1.10700
C2362       C  0.58032883  0.57693682  0.58462295     0.98900
C2363       C  0.92359146  0.57780599  0.57804036     0.99000
N2364       N  0.96049058  0.54031358  0.93417373    -0.06400
N2365       N  0.93625475  0.54762742  0.90982543    -0.61700
N2366       N  0.53621565  0.56975182  0.95715215    -0.05700
N2367       N  0.55846661  0.59518431  0.94964014    -0.58500
N2368       N  0.53723331  0.54521420  0.93187886    -0.07000
N2369       N  0.56028025  0.55332960  0.90704401    -0.61300
N2370       N  0.95997839  0.56515181  0.95914499    -0.06000
N2371       N  0.93534202  0.59022133  0.95205818    -0.58500
Mn2372     Mn  0.00069725  0.00100538  0.93119640     1.20200
Mn2373     Mn  0.50215266  0.57212736  0.50373940     1.10100
Cl2374     Cl  0.49966515  0.50372151  0.50156194    -0.86500
C2375       C  0.92053917  0.57832198  0.92169708     0.95900
C2376       C  0.57348521  0.58459066  0.91833905     0.95700
C2377       C  0.67443842  0.66540259  0.83118373    -0.03000
C2378       C  0.68244414  0.82712399  0.83166599    -0.03000
C2379       C  0.68061093  0.82702272  0.67542202    -0.03000
C2380       C  0.67373936  0.66633405  0.66897288    -0.03000
C2381       C  0.82663214  0.66606998  0.82952870    -0.03000
C2382       C  0.82701798  0.66557757  0.66838840    -0.03000
C2383       C  0.83749821  0.82753589  0.67044292    -0.03000
C2384       C  0.84013345  0.82740152  0.82605487    -0.03000
C2385       C  0.82386934  0.86452248  0.76726264    -0.26800
C2386       C  0.84852575  0.84222820  0.78642735    -0.14900
C2387       C  0.88009940  0.83750522  0.76697751     0.35800
C2388       C  0.87833708  0.83383189  0.72867180    -0.26300
C2389       C  0.84648369  0.84140363  0.71000571    -0.15500
C2390       C  0.82371372  0.86575194  0.72937789     0.36800
N2391       N  0.80515072  0.89534534  0.71144580    -0.89700
H2392       H  0.80371561  0.87976556  0.78147770     0.18000
H2393       H  0.90148065  0.82569853  0.71384157     0.17900
N2394       N  0.91306408  0.83812381  0.78535389    -0.88800
H2395       H  0.82370764  0.91468285  0.70660164     0.35300
H2396       H  0.78844363  0.90883689  0.72933893     0.40400
H2397       H  0.91486084  0.86375775  0.79652572     0.40000
H2398       H  0.93343247  0.83521708  0.76692993     0.34900
C2399       C  0.81797023  0.73095292  0.63827284    -0.26800
C2400       C  0.83532307  0.70740089  0.66305535    -0.14900
C2401       C  0.86248014  0.72345031  0.68323797     0.35800
C2402       C  0.86349219  0.76139552  0.68644681    -0.26300
C2403       C  0.84339934  0.78513516  0.66401731    -0.15500
C2404       C  0.82509714  0.76806362  0.63584119     0.36800
N2405       N  0.81238469  0.78874755  0.60533938    -0.89700
H2406       H  0.79929768  0.72145071  0.61985397     0.18000
H2407       H  0.88197132  0.77140293  0.70497887     0.17900
N2408       N  0.88927408  0.70131839  0.70063643    -0.88800
H2409       H  0.78549822  0.78591716  0.60337340     0.35300
H2410       H  0.82375685  0.77749118  0.58238995     0.40400
H2411       H  0.88910700  0.70708908  0.72802172     0.40000
H2412       H  0.91331610  0.70855386  0.69025170     0.34900
C2413       C  0.85179902  0.63790578  0.76923391    -0.26800
C2414       C  0.82994796  0.66337058  0.78758319    -0.14900
C2415       C  0.80928949  0.68810979  0.76619434     0.35800
C2416       C  0.80795169  0.68457639  0.72934087    -0.26300
C2417       C  0.83044279  0.66083491  0.71035153    -0.15500
C2418       C  0.85341395  0.63748835  0.73111380     0.36800
N2419       N  0.87921071  0.61441061  0.71449023    -0.89700
H2420       H  0.86777549  0.61813333  0.78417585     0.18000
H2421       H  0.79042148  0.70307227  0.71436163     0.17900
N2422       N  0.79337638  0.72039538  0.78101862    -0.88800
H2423       H  0.87578010  0.58789886  0.72355777     0.35300
H2424       H  0.90371752  0.62193197  0.72336390     0.40400
H2425       H  0.77903063  0.71546860  0.80409490     0.40000
H2426       H  0.77638258  0.73272070  0.76227939     0.34900
C2427       C  0.86076319  0.72355195  0.81369284    -0.26800
C2428       C  0.83745430  0.70686960  0.83782151    -0.14900
C2429       C  0.82589835  0.73007474  0.86593103     0.35800
C2430       C  0.82982178  0.76818687  0.86302615    -0.26300
C2431       C  0.84688171  0.78494849  0.83356246    -0.15500
C2432       C  0.86694831  0.76037818  0.81251496     0.36800
N2433       N  0.89577709  0.77083508  0.79158353    -0.89700
H2434       H  0.87364066  0.70852814  0.79268694     0.18000
H2435       H  0.81839739  0.78507900  0.88376132     0.17900
N2436       N  0.81243244  0.71600679  0.89857560    -0.88800
H2437       H  0.89201534  0.76245741  0.76525480     0.35300
H2438       H  0.91831083  0.75725029  0.80161874     0.40400
H2439       H  0.78785715  0.72846748  0.90280139     0.40000
H2440       H  0.82877009  0.72329536  0.91957202     0.34900
C2441       C  0.76973583  0.63393888  0.68495930    -0.26800
C2442       C  0.78770316  0.65519298  0.65943737    -0.14900
C2443       C  0.76804995  0.66143587  0.62690198     0.35800
C2444       C  0.73084360  0.66053953  0.62798541    -0.26300
C2445       C  0.71300314  0.65302186  0.66034896    -0.15500
C2446       C  0.73361521  0.63153219  0.68485416     0.36800
N2447       N  0.71843840  0.60651410  0.70935560    -0.89700
H2448       H  0.78350999  0.61894576  0.70619334     0.18000
H2449       H  0.71615656  0.66490497  0.60334776     0.17900
N2450       N  0.78420152  0.66421249  0.59226402    -0.88800
H2451       H  0.72630711  0.61290537  0.73520845     0.35300
H2452       H  0.72873062  0.58055335  0.70387197     0.40400
H2453       H  0.81119985  0.66514489  0.59449823     0.40000
H2454       H  0.77486901  0.68803919  0.57938673     0.34900
C2455       C  0.64834058  0.76665833  0.69006965    -0.26800
C2456       C  0.67175331  0.78619634  0.66902822    -0.14900
C2457       C  0.68573076  0.76735522  0.63872870     0.35800
C2458       C  0.68515433  0.72942435  0.63716636    -0.26300
C2459       C  0.66747477  0.70887929  0.66293526    -0.15500
C2460       C  0.64369336  0.72957778  0.68462690     0.36800
N2461       N  0.61449927  0.71306756  0.70097273    -0.89700
H2462       H  0.63219951  0.77927340  0.71000283     0.18000
H2463       H  0.69714766  0.71732310  0.61423121     0.17900
N2464       N  0.70087074  0.78663003  0.60941866    -0.88800
H2465       H  0.59175366  0.72654308  0.69137416     0.35300
H2466       H  0.61587193  0.71707948  0.72860805     0.40400
H2467       H  0.68688278  0.78120296  0.58609282     0.40000
H2468       H  0.72640689  0.77637117  0.60611375     0.34900
C2469       C  0.73753653  0.84930142  0.64343967    -0.26800
C2470       C  0.72105366  0.82678565  0.66888387    -0.14900
C2471       C  0.74351892  0.80366518  0.69042157     0.35800
C2472       C  0.77906218  0.80794274  0.69035963    -0.26300
C2473       C  0.79625695  0.83158394  0.66718624    -0.15500
C2474       C  0.77455696  0.85120541  0.64169132     0.36800
N2475       N  0.78911508  0.87096765  0.61253038    -0.89700
H2476       H  0.72194763  0.86494252  0.62407038     0.18000
H2477       H  0.79463774  0.78921076  0.70678723     0.17900
N2478       N  0.73162920  0.77482682  0.71287220    -0.88800
H2479       H  0.77926235  0.89774033  0.61359365     0.35300
H2480       H  0.78049588  0.85999435  0.58851822     0.40400
H2481       H  0.72438601  0.75331380  0.69720467     0.40000
H2482       H  0.71175206  0.78357489  0.73004578     0.34900
C2483       C  0.69888431  0.85959508  0.77251411    -0.26800
C2484       C  0.67321395  0.84181098  0.79186676    -0.14900
C2485       C  0.64107773  0.84050756  0.77203947     0.35800
C2486       C  0.64227985  0.83933458  0.73371785    -0.26300
C2487       C  0.67432415  0.84125579  0.71521164    -0.15500
C2488       C  0.70013042  0.85913690  0.73526034     0.36800
N2489       N  0.72817470  0.87710452  0.71880651    -0.89700
H2490       H  0.72010520  0.87219880  0.78609971     0.18000
H2491       H  0.61840173  0.83612550  0.71872959     0.17900
N2492       N  0.60741213  0.84270766  0.78893012    -0.88800
H2493       H  0.75089865  0.86483743  0.72960172     0.35300
H2494       H  0.72682351  0.90417365  0.72666425     0.40400
H2495       H  0.60966276  0.84097839  0.81676089     0.40000
H2496       H  0.59279715  0.82107791  0.78064784     0.34900
C2497       C  0.74274894  0.80792843  0.81206524    -0.26800
C2498       C  0.72352510  0.82866924  0.83666193    -0.14900
C2499       C  0.74342390  0.84817475  0.86189150     0.35800
C2500       C  0.78070246  0.84836082  0.85913353    -0.26300
C2501       C  0.79891623  0.83100191  0.83057091    -0.15500
C2502       C  0.77816726  0.81189241  0.80634446     0.36800
N2503       N  0.79210734  0.79999028  0.77291281    -0.89700
H2504       H  0.72867368  0.79159533  0.79348071     0.18000
H2505       H  0.79506490  0.86179624  0.87970810     0.17900
N2506       N  0.72679601  0.86583245  0.89152410    -0.88800
H2507       H  0.77260145  0.78896970  0.75813617     0.35300
H2508       H  0.81210493  0.78061719  0.77640197     0.40400
H2509       H  0.73342513  0.89297294  0.89093268     0.40000
H2510       H  0.73702060  0.85402725  0.91521167     0.34900
C2511       C  0.64474438  0.64309919  0.76997661    -0.26800
C2512       C  0.66963009  0.66297865  0.78891696    -0.14900
C2513       C  0.69192634  0.68347705  0.76755293     0.35800
C2514       C  0.69199595  0.68198347  0.73066940    -0.26300
C2515       C  0.66902612  0.66169562  0.71096918    -0.15500
C2516       C  0.64394568  0.64255595  0.73142706     0.36800
N2517       N  0.61668483  0.62423291  0.71401002    -0.89700
H2518       H  0.62524950  0.62875730  0.78464619     0.18000
H2519       H  0.71148807  0.69716403  0.71678845     0.17900
N2520       N  0.71795232  0.70385372  0.78359501    -0.88800
H2521       H  0.59280914  0.63563823  0.72256522     0.35300
H2522       H  0.61823733  0.59711668  0.72249993     0.40400
H2523       H  0.71569043  0.73038406  0.77349084     0.40000
H2524       H  0.74043394  0.69090778  0.77409015     0.34900
C2525       C  0.73258476  0.63037463  0.81422940    -0.26800
C2526       C  0.71297870  0.64997965  0.83981751    -0.14900
C2527       C  0.73191837  0.65522648  0.87174065     0.35800
C2528       C  0.76841993  0.66072502  0.86938544    -0.26300
C2529       C  0.78690732  0.65523034  0.83672770    -0.15500
C2530       C  0.76919295  0.63119295  0.81343026     0.36800
N2531       N  0.78806724  0.60632235  0.79057728    -0.89700
H2532       H  0.71938327  0.61544958  0.79400291     0.18000
H2533       H  0.78250130  0.66410788  0.89391944     0.17900
N2534       N  0.71472331  0.65330167  0.90589557    -0.88800
H2535       H  0.77117346  0.59029557  0.77631544     0.35300
H2536       H  0.80306797  0.58865547  0.80717169     0.40400
H2537       H  0.70579921  0.62710308  0.90897773     0.40000
H2538       H  0.73254329  0.65695092  0.92670970     0.34900
C2539       C  0.69031338  0.72604279  0.86374480    -0.26800
C2540       C  0.66985145  0.70758557  0.83889731    -0.14900
C2541       C  0.64541169  0.73001534  0.81908485     0.35800
C2542       C  0.65022726  0.76744622  0.81589186    -0.26300
C2543       C  0.67492601  0.78544270  0.83652814    -0.15500
C2544       C  0.69208606  0.76382539  0.86369891     0.36800
N2545       N  0.71148834  0.78000742  0.89179074    -0.89700
H2546       H  0.70449944  0.71265252  0.88488743     0.18000
H2547       H  0.63381744  0.78136254  0.79702262     0.17900
N2548       N  0.61637680  0.71463827  0.80107719    -0.88800
H2549       H  0.70088480  0.77242510  0.91646202     0.35300
H2550       H  0.73721996  0.76958830  0.89085912     0.40400
H2551       H  0.60089649  0.73470967  0.78791711     0.40000
H2552       H  0.60047133  0.70346157  0.82063864     0.34900
C2553       C  0.62147254  0.58722055  0.87303302    -0.26800
C2554       C  0.59919532  0.60551632  0.89724377    -0.14900
C2555       C  0.60123648  0.64347591  0.89959889     0.35800
C2556       C  0.62513134  0.66180469  0.87848153    -0.26300
C2557       C  0.64764260  0.64389589  0.85367384    -0.15500
C2558       C  0.64562865  0.60568794  0.85178856     0.36800
N2559       N  0.66817906  0.58517853  0.82848952    -0.89700
H2560       H  0.62044283  0.55809142  0.87073161     0.18000
H2561       H  0.62547551  0.69069539  0.88219038     0.17900
N2562       N  0.57875862  0.66470150  0.92243615    -0.88800
H2563       H  0.65274152  0.57078358  0.81097055     0.35300
H2564       H  0.68286978  0.56640545  0.84419776     0.40400
H2565       H  0.58368261  0.65697014  0.94913793     0.40000
H2566       H  0.55284535  0.65998461  0.91584590     0.34900
C2567       C  0.63185845  0.83594716  0.62726026    -0.26800
C2568       C  0.65766381  0.85148714  0.64901943    -0.14900
C2569       C  0.65901522  0.88992021  0.64748488     0.35800
C2570       C  0.63584383  0.91067466  0.62521152    -0.26300
C2571       C  0.61110678  0.89433498  0.60376756    -0.15500
C2572       C  0.60944723  0.85638558  0.60485224     0.36800
N2573       N  0.58405916  0.83744289  0.58493090    -0.89700
H2574       H  0.62747623  0.80733956  0.62742108     0.18000
H2575       H  0.63711012  0.93992502  0.62491709     0.17900
N2576       N  0.68330369  0.90849318  0.66885003    -0.88800
H2577       H  0.58851435  0.84112927  0.55748806     0.35300
H2578       H  0.55910787  0.84763292  0.59150806     0.40400
H2579       H  0.66926668  0.92629650  0.68550994     0.40000
H2580       H  0.69860035  0.92387317  0.65175036     0.34900
C2581       C  0.87821894  0.65784879  0.62370564    -0.26800
C2582       C  0.85297940  0.64149907  0.64569517    -0.14900
C2583       C  0.85101632  0.60314341  0.64341095     0.35800
C2584       C  0.87418549  0.58306126  0.62130217    -0.26300
C2585       C  0.89876991  0.60003570  0.59985527    -0.15500
C2586       C  0.90036990  0.63803528  0.60106023     0.36800
N2587       N  0.92483426  0.65766852  0.58025629    -0.89700
H2588       H  0.88118688  0.68672715  0.62290005     0.18000
H2589       H  0.87256309  0.55387078  0.62058731     0.17900
N2590       N  0.82560311  0.58406409  0.66330422    -0.88800
H2591       H  0.91935585  0.65456095  0.55299487     0.35300
H2592       H  0.95005929  0.64740474  0.58610490     0.40400
H2593       H  0.83847689  0.56400307  0.67907761     0.40000
H2594       H  0.80978199  0.57112045  0.64498784     0.34900
C2595       C  0.65160174  0.60542644  0.64897441    -0.26800
C2596       C  0.64882621  0.64374733  0.64591544    -0.14900
C2597       C  0.62399741  0.65869954  0.62047287     0.35800
C2598       C  0.60275968  0.63598015  0.60116276    -0.26300
C2599       C  0.60476859  0.59835579  0.60577458    -0.15500
C2600       C  0.62962096  0.58289403  0.62981772     0.36800
N2601       N  0.63314633  0.54438327  0.63446071    -0.89700
H2602       H  0.67037337  0.59258472  0.66718569     0.18000
H2603       H  0.58391138  0.64836509  0.58246753     0.17900
N2604       N  0.61971146  0.69674233  0.61316200    -0.88800
H2605       H  0.62936285  0.53821796  0.66162743     0.35300
H2606       H  0.65871907  0.53619070  0.62791447     0.40400
H2607       H  0.62448973  0.70139955  0.58588312     0.40000
H2608       H  0.59385561  0.70493625  0.61846965     0.34900
C2609       C  0.90828416  0.85989661  0.89630533    -0.26800
C2610       C  0.90132032  0.89727911  0.89619394    -0.14900
C2611       C  0.87403390  0.91175258  0.87429816     0.35800
C2612       C  0.85419719  0.88853027  0.85325607    -0.26300
C2613       C  0.86103596  0.85053370  0.85290415    -0.15500
C2614       C  0.88965345  0.83670254  0.87457493     0.36800
N2615       N  0.90187448  0.79961457  0.87372527    -0.89700
H2616       H  0.92983853  0.84843937  0.91227893     0.18000
H2617       H  0.83343973  0.90048556  0.83660530     0.21100
N2618       N  0.86603546  0.94994184  0.87364811    -0.88800
H2619       H  0.90105148  0.78879121  0.89980420     0.35300
H2620       H  0.92783378  0.79864649  0.86522667     0.40400
H2621       H  0.84008452  0.95416704  0.88153529     0.40000
H2622       H  0.86817153  0.95930332  0.84714283     0.34900
C2623       C  0.91076696  0.62259960  0.87350179    -0.26800
C2624       C  0.89673819  0.60007177  0.89928889    -0.14900
C2625       C  0.86109733  0.59482981  0.89989173     0.35800
C2626       C  0.83930939  0.61398360  0.87556473    -0.26300
C2627       C  0.85225722  0.63984390  0.85087860    -0.15500
C2628       C  0.88935708  0.64193654  0.84898993     0.36800
N2629       N  0.90622706  0.66208130  0.82159937    -0.89700
H2630       H  0.93884401  0.62461592  0.87180323     0.18000
H2631       H  0.81221695  0.60771575  0.87681206     0.17900
N2632       N  0.84692721  0.56990180  0.92519007    -0.88800
H2633       H  0.92250486  0.64429172  0.80707869     0.35300
H2634       H  0.92193872  0.68078377  0.83392943     0.40400
H2635       H  0.83393569  0.55039503  0.91085242     0.40000
H2636       H  0.82854236  0.58414848  0.94077424     0.34900
C2637       C  0.63355063  0.90829804  0.87682823    -0.26800
C2638       C  0.61179680  0.89082244  0.90102503    -0.14900
C2639       C  0.61614035  0.85308863  0.90600008     0.35800
C2640       C  0.64027791  0.83342155  0.88526976    -0.26300
C2641       C  0.66106709  0.85020137  0.85903234    -0.15500
C2642       C  0.65840797  0.88865973  0.85645025     0.36800
N2643       N  0.68036145  0.90810363  0.83269399    -0.89700
H2644       H  0.63113493  0.93746989  0.87344019     0.18000
H2645       H  0.64110203  0.80449410  0.88950766     0.17900
N2646       N  0.59499627  0.83402854  0.93098885    -0.88800
H2647       H  0.69398485  0.92654757  0.84777856     0.35300
H2648       H  0.66442815  0.92288216  0.81439288     0.40400
H2649       H  0.61152881  0.82017683  0.94941891     0.40000
H2650       H  0.58129307  0.81488377  0.91687350     0.34900
C2651       C  0.85458559  0.88726885  0.64028762    -0.26800
C2652       C  0.86000558  0.84927620  0.64318156    -0.14900
C2653       C  0.88940577  0.83406185  0.62393053     0.35800
C2654       C  0.91010918  0.85626248  0.60271882    -0.26300
C2655       C  0.90443238  0.89375336  0.60127233    -0.15500
C2656       C  0.87634845  0.90937338  0.62014708     0.36800
N2657       N  0.86927945  0.94771434  0.61835491    -0.89700
H2658       H  0.83253057  0.90034873  0.65269531     0.18000
H2659       H  0.93216149  0.84400096  0.58861568     0.17900
N2660       N  0.90018255  0.79655866  0.62651517    -0.88800
H2661       H  0.86980812  0.95756616  0.64451740     0.35300
H2662       H  0.84404769  0.95241524  0.60812572     0.40400
H2663       H  0.92564933  0.79450155  0.63668861     0.40000
H2664       H  0.90022268  0.78574205  0.60072534     0.34900
loop_ 
_geom_bond_atom_site_label_1 
_geom_bond_atom_site_label_2 
_geom_bond_distance 
_geom_bond_site_symmetry_2 
_ccdc_geom_bond_type 
N1            N2   1.322       .  A
N1            N7   1.316       .  A
N1        Mn2028   2.221       .  S
N2            C9   1.356       .  A
N3            N5   1.316       .  A
N3            N4   1.319       .  A
N3        Mn1684   2.191   1_454  S
N4           C10   1.350       .  A
N5            N6   1.320       .  A
N5         Mn696   2.210       .  S
N6           C10   1.357       .  A
N7            N8   1.318       .  A
N7         Mn352   2.180   1_554  S
N8            C9   1.348       .  A
C9          C324   1.471       .  S
C10         C240   1.484       .  S
N11          N17   1.316       .  A
N11          N12   1.317       .  A
N11       Mn1373   2.209       .  S
N12          C20   1.355       .  A
N13          N14   1.322       .  A
N13          N15   1.316       .  A
N13         Mn19   2.213       .  S
N14          C21   1.355       .  A
N15          N16   1.323       .  A
N15         Mn41   2.213       .  S
N16          C21   1.355       .  A
N17          N18   1.326       .  A
N17       Mn1351   2.213       .  S
N18          C20   1.356       .  A
Mn19       N1668   2.200       .  S
Mn19        N340   2.195       .  S
Mn19       N1349   2.195       .  S
Mn19      Cl2374   2.538       .  S
C20         C307   1.489       .  S
C21         C279   1.492       .  S
N22          N23   1.322       .  A
N22          N28   1.317       .  A
N22         Mn30   2.220   1_545  S
N23          C31   1.355       .  A
N24          N26   1.316       .  A
N24          N25   1.320       .  A
N24       Mn1374   2.220       .  S
N25          C32   1.355       .  A
N26          N27   1.323       .  A
N26       Mn1362   2.202   1_545  S
N27          C32   1.354       .  A
N28          N29   1.324       .  A
N28         Mn42   2.217   1_455  S
N29          C31   1.357       .  A
Mn30       N1999   2.232   1_455  S
Mn30        N671   2.200       .  S
Mn30       N1358   2.195   1_465  S
Mn30        Cl43   2.548   1_554  S
C31         C268   1.499       .  S
C32         C254   1.488       .  S
N33          N34   1.322       .  A
N33          N39   1.318       .  A
N33        Mn707   2.210       .  S
N34          C44   1.353       .  A
N35          N36   1.323       .  A
N35          N37   1.315       .  A
N35        Mn375   2.224       .  S
N36          C45   1.358       .  A
N37          N38   1.322       .  A
N37       Mn2039   2.206   1_545  S
N38          C45   1.355       .  A
N39          N40   1.322       .  A
N39       Mn1707   2.214       .  S
N40          C44   1.354       .  A
Mn41       N1343   2.187       .  S
Mn41        N699   2.186       .  S
Mn41       N2035   2.187       .  S
Mn41      Cl2374   2.551       .  S
Mn42       N1356   2.195       .  S
Mn42        N368   2.207   1_654  S
Mn42       N1704   2.215   1_554  S
Mn42        Cl43   2.546   1_644  S
Cl43      Mn2350   2.549       .  S
Cl43      Mn2372   2.553   1_565  S
C44         C293   1.481       .  S
C45         C223   1.501       .  S
C46         C181   1.612       .  S
C46         C195   1.593       .  S
C46         C209   1.636       .  S
C46         C226   1.591       .  S
C47         C153   1.577       .  S
C47         C167   1.616       .  S
C47         C212   1.631       .  S
C47         C310   1.584       .  S
C48         C125   1.605       .  S
C48         C139   1.557       .  S
C48         C156   1.601       .  S
C48         C237   1.571       .  S
C49         C114   1.596       .  S
C49         C128   1.580       .  S
C49         C184   1.588       .  S
C49         C265   1.559       .  S
C50          C83   1.603       .  S
C50          C97   1.618       .  S
C50         C198   1.602       .  S
C50         C296   1.584       .  S
C51          C69   1.602       .  S
C51          C86   1.591       .  S
C51         C111   1.599       .  S
C51         C251   1.587       .  S
C52          C58   1.605       .  S
C52          C72   1.615       .  S
C52         C142   1.574       .  S
C52         C321   1.558       .  S
C53          C55   1.607       .  S
C53         C100   1.605       .  S
C53         C170   1.596       .  S
C53         C282   1.571       .  S
C54          C55   1.417       .  A
C54          C59   1.400       .  A
C54          H61   1.084       .  S
C55          C56   1.426       .  A
C56          C57   1.424       .  A
C56          N63   1.420       .  S
C57          C58   1.406       .  A
C57          H62   1.082       .  S
C58          C59   1.438       .  A
C59          N60   1.432       .  S
N60          H64   1.037       .  S
N60          H65   1.043       .  S
N63          H66   1.045       .  S
N63          H67   1.046       .  S
C68          C69   1.409       .  A
C68          C73   1.419       .  A
C68          H75   1.061       .  S
C69          C70   1.429       .  A
C70          C71   1.407       .  A
C70          N77   1.435       .  S
C71          C72   1.417       .  A
C71          H76   1.060       .  S
C72          C73   1.430       .  A
C73          N74   1.436       .  S
N74          H78   1.045       .  S
N74          H79   1.045       .  S
N77          H80   1.046       .  S
N77          H81   1.046       .  S
C82          C83   1.426       .  A
C82          C87   1.423       .  A
C82          H89   1.078       .  S
C83          C84   1.423       .  A
C84          C85   1.409       .  A
C84          N91   1.427       .  S
C85          C86   1.412       .  A
C85          H90   1.083       .  S
C86          C87   1.419       .  A
C87          N88   1.428       .  S
N88          H92   1.045       .  S
N88          H93   1.045       .  S
N91          H94   1.040       .  S
N91          H95   1.043       .  S
C96          C97   1.441       .  A
C96         C101   1.436       .  A
C96         H103   1.070       .  S
C97          C98   1.437       .  A
C98          C99   1.385       .  A
C98         N105   1.425       .  S
C99         C100   1.404       .  A
C99         H104   1.080       .  S
C100        C101   1.410       .  A
C101        N102   1.432       .  S
N102        H106   1.046       .  S
N102        H107   1.045       .  S
N105        H108   1.035       .  S
N105        H109   1.043       .  S
C110        C111   1.424       .  A
C110        C115   1.401       .  A
C110        H117   1.080       .  S
C111        C112   1.439       .  A
C112        C113   1.432       .  A
C112        N119   1.438       .  S
C113        C114   1.418       .  A
C113        H118   1.082       .  S
C114        C115   1.403       .  A
C115        N116   1.431       .  S
N116        H120   1.039       .  S
N116        H121   1.045       .  S
N119        H122   1.042       .  S
N119        H123   1.045       .  S
C124        C125   1.414       .  A
C124        C129   1.424       .  A
C124        H131   1.074       .  S
C125        C126   1.425       .  A
C126        C127   1.390       .  A
C126        N133   1.438       .  S
C127        C128   1.404       .  A
C127        H132   1.066       .  S
C128        C129   1.429       .  A
C129        N130   1.428       .  S
N130        H134   1.045       .  S
N130        H135   1.045       .  S
N133        H136   1.045       .  S
N133        H137   1.045       .  S
C138        C139   1.414       .  A
C138        C143   1.420       .  A
C138        H145   1.082       .  S
C139        C140   1.433       .  A
C140        C141   1.375       .  A
C140        N147   1.440       .  S
C141        C142   1.395       .  A
C141        H146   1.074       .  S
C142        C143   1.435       .  A
C143        N144   1.430       .  S
N144        H148   1.046       .  S
N144        H149   1.046       .  S
N147        H150   1.045       .  S
N147        H151   1.032       .  S
C152        C153   1.395       .  A
C152        C157   1.385       .  A
C152        H159   1.083       .  S
C153        C154   1.427       .  A
C154        C155   1.417       .  A
C154        N161   1.437       .  S
C155        C156   1.418       .  A
C155        H160   1.070       .  S
C156        C157   1.449       .  A
C157        N158   1.435       .  S
N158        H162   1.045       .  S
N158        H163   1.046       .  S
N161        H164   1.043       .  S
N161        H165   1.044       .  S
C166        C167   1.404       .  A
C166        C171   1.386       .  A
C166        H173   1.053       .  S
C167        C168   1.440       .  A
C168        C169   1.439       .  A
C168        N175   1.428       .  S
C169        C170   1.419       .  A
C169        H174   1.081       .  S
C170        C171   1.421       .  A
C171        N172   1.444       .  S
N172        H176   1.035       .  S
N172        H177   1.037       .  S
N175        H178   1.046       .  S
N175        H179   1.046       .  S
C180        C181   1.431       .  A
C180        C185   1.433       .  A
C180        H187   1.082       .  S
C181        C182   1.426       .  A
C182        C183   1.396       .  A
C182        N189   1.423       .  S
C183        C184   1.403       .  A
C183        H188   1.081       .  S
C184        C185   1.434       .  A
C185        N186   1.430       .  S
N186        H190   1.045       .  S
N186        H191   1.046       .  S
N189        H192   1.035       .  S
N189        H193   1.044       .  S
C194        C195   1.413       .  A
C194        C199   1.433       .  A
C194        H201   1.082       .  S
C195        C196   1.424       .  A
C196        C197   1.419       .  A
C196        N203   1.429       .  S
C197        C198   1.408       .  A
C197        H202   1.082       .  S
C198        C199   1.424       .  A
C199        N200   1.434       .  S
N200        H204   1.045       .  S
N200        H205   1.045       .  S
N203        H206   1.046       .  S
N203        H207   1.039       .  S
C208        C209   1.427       .  A
C208        C213   1.440       .  A
C208        H215   1.068       .  S
C209        C210   1.423       .  A
C210        C211   1.392       .  A
C210        N217   1.430       .  S
C211        C212   1.410       .  A
C211        H216   1.063       .  S
C212        C213   1.440       .  A
C213        N214   1.426       .  S
N214        H218   1.046       .  S
N214        H219   1.046       .  S
N217        H220   1.045       .  S
N217        H221   1.045       .  S
C222        C223   1.404       .  A
C222        C227   1.414       .  A
C222        H229   1.084       .  S
C223        C224   1.410       .  A
C224        C225   1.400       .  A
C224        N231   1.433       .  S
C225        C226   1.416       .  A
C225        H230   1.061       .  S
C226        C227   1.436       .  A
C227        N228   1.433       .  S
N228        H232   1.046       .  S
N228        H233   1.046       .  S
N231        H234   1.046       .  S
N231        H235   1.045       .  S
C236        C237   1.421       .  A
C236        C241   1.401       .  A
C236        H243   1.079       .  S
C237        C238   1.426       .  A
C238        C239   1.399       .  A
C238        N245   1.421       .  S
C239        C240   1.393       .  A
C239        H244   1.084       .  S
C240        C241   1.413       .  A
C241        N242   1.432       .  S
N242        H246   1.045       .  S
N242        H247   1.045       .  S
N245        H248   1.046       .  S
N245        H249   1.046       .  S
C250        C251   1.425       .  A
C250        C255   1.397       .  A
C250        H257   1.076       .  S
C251        C252   1.434       .  A
C252        C253   1.413       .  A
C252        N259   1.428       .  S
C253        C254   1.398       .  A
C253        H258   1.084       .  S
C254        C255   1.407       .  A
C255        N256   1.434       .  S
N256        H260   1.044       .  S
N256        H261   1.046       .  S
N259        H262   1.045       .  S
N259        H263   1.046       .  S
C264        C265   1.412       .  A
C264        C269   1.407       .  A
C264        H271   1.079       .  S
C265        C266   1.427       .  A
C266        C267   1.410       .  A
C266        N273   1.432       .  S
C267        C268   1.404       .  A
C267        H272   1.084       .  S
C268        C269   1.411       .  A
C269        N270   1.432       .  S
N270        H274   1.046       .  S
N270        H275   1.046       .  S
N273        H276   1.046       .  S
N273        H277   1.046       .  S
C278        C279   1.398       .  A
C278        C283   1.408       .  A
C278        H285   1.084       .  S
C279        C280   1.407       .  A
C280        C281   1.408       .  A
C280        N287   1.433       .  S
C281        C282   1.422       .  A
C281        H286   1.079       .  S
C282        C283   1.427       .  A
C283        N284   1.428       .  S
N284        H288   1.046       .  S
N284        H289   1.046       .  S
N287        H290   1.046       .  S
N287        H291   1.046       .  S
C292        C293   1.397       .  A
C292        C297   1.409       .  A
C292        H299   1.084       .  S
C293        C294   1.397       .  A
C294        C295   1.402       .  A
C294        N301   1.433       .  S
C295        C296   1.421       .  A
C295        H300   1.076       .  S
C296        C297   1.447       .  A
C297        N298   1.444       .  S
N298        H302   1.046       .  S
N298        H303   1.039       .  S
N301        H304   1.046       .  S
N301        H305   1.046       .  S
C306        C307   1.388       .  A
C306        C311   1.392       .  A
C306        H313   1.084       .  S
C307        C308   1.410       .  A
C308        C309   1.421       .  A
C308        N315   1.436       .  S
C309        C310   1.418       .  A
C309        H314   1.084       .  S
C310        C311   1.444       .  A
C311        N312   1.432       .  S
N312        H316   1.046       .  S
N312        H317   1.046       .  S
N315        H318   1.046       .  S
N315        H319   1.046       .  S
C320        C321   1.413       .  A
C320        C325   1.397       .  A
C320        H327   1.068       .  S
C321        C322   1.429       .  A
C322        C323   1.407       .  A
C322        N329   1.431       .  S
C323        C324   1.398       .  A
C323        H328   1.084       .  S
C324        C325   1.394       .  A
C325        N326   1.433       .  S
N326        H330   1.045       .  S
N326        H331   1.046       .  S
N329        H332   1.046       .  S
N329        H333   1.046       .  S
N334        N335   1.323       .  A
N334        N340   1.317       .  A
N334      Mn2361   2.218       .  S
N335        C342   1.355       .  A
N336        N338   1.315       .  A
N336        N337   1.319       .  A
N336      Mn1351   2.205       .  S
N337        C343   1.354       .  A
N338        N339   1.317       .  A
N338      Mn1029   2.181       .  S
N339        C343   1.350       .  A
N340        N341   1.318       .  A
N341        C342   1.351       .  A
C342        C657   1.477       .  S
C343        C573   1.476       .  S
N344        N350   1.313       .  A
N344        N345   1.320       .  A
N344      Mn1706   2.184       .  S
N345        C353   1.353       .  A
N346        N347   1.322       .  A
N346        N348   1.315       .  A
N346       Mn352   2.218       .  S
N347        C354   1.357       .  A
N348        N349   1.326       .  A
N348       Mn374   2.218       .  S
N349        C354   1.357       .  A
N350        N351   1.316       .  A
N350      Mn1684   2.195   1_455  S
N351        C353   1.352       .  A
Mn352      N1335   2.205   1_556  S
Mn352      N1682   2.182       .  S
Mn352     Cl2041   2.538       .  S
C353        C640   1.477       .  S
C354        C612   1.500       .  S
N355        N356   1.326       .  A
N355        N361   1.317       .  A
N355       Mn363   2.221   1_545  S
N356        C364   1.356       .  A
N357        N359   1.316       .  A
N357        N358   1.321       .  A
N357      Mn1707   2.210       .  S
N358        C365   1.355       .  A
N359        N360   1.321       .  A
N359      Mn1695   2.203       .  S
N360        C365   1.354       .  A
N361        N362   1.321       .  A
N361       Mn375   2.215       .  S
N362        C364   1.355       .  A
Mn363      N2332   2.219   1_455  S
Mn363      N1004   2.179       .  S
Mn363      N1691   2.184   1_465  S
Mn363      Cl376   2.552       .  S
C364        C601   1.493       .  S
C365        C587   1.487       .  S
N366        N367   1.316       .  A
N366        N372   1.316       .  A
N366      Mn1040   2.180   1_545  S
N367        C377   1.348       .  A
N368        N369   1.320       .  A
N368        N370   1.316       .  A
N369        C378   1.354       .  A
N370        N371   1.326       .  A
N370      Mn2372   2.228       .  S
N371        C378   1.358       .  A
N372        N373   1.322       .  A
N372      Mn1374   2.214   1_556  S
N373        C377   1.358       .  A
Mn374      N1676   2.187       .  S
Mn374      N1032   2.178       .  S
Mn374      N2368   2.205       .  S
Mn374     Cl2041   2.557       .  S
Mn375      N1689   2.207   1_455  S
Mn375      N1371   2.207   1_455  S
Mn375      Cl376   2.536   1_545  S
Cl376     Mn2017   2.545       .  S
Cl376     Mn2039   2.540       .  S
C377        C626   1.481       .  S
C378        C556   1.499       .  S
C379        C514   1.597       .  S
C379        C528   1.595       .  S
C379        C542   1.584       .  S
C379        C559   1.572       .  S
C380        C486   1.607       .  S
C380        C500   1.593       .  S
C380        C545   1.588       .  S
C380        C643   1.554       .  S
C381        C458   1.585       .  S
C381        C472   1.569       .  S
C381        C489   1.603       .  S
C381        C570   1.567       .  S
C382        C447   1.600       .  S
C382        C461   1.592       .  S
C382        C517   1.591       .  S
C382        C598   1.573       .  S
C383        C416   1.584       .  S
C383        C430   1.588       .  S
C383        C531   1.599       .  S
C383        C629   1.545       .  S
C384        C402   1.587       .  S
C384        C419   1.581       .  S
C384        C444   1.610       .  S
C384        C584   1.566       .  S
C385        C391   1.607       .  S
C385        C405   1.596       .  S
C385        C475   1.579       .  S
C385        C654   1.568       .  S
C386        C388   1.610       .  S
C386        C433   1.611       .  S
C386        C503   1.594       .  S
C386        C615   1.574       .  S
C387        C388   1.420       .  A
C387        C392   1.394       .  A
C387        H394   1.083       .  S
C388        C389   1.425       .  A
C389        C390   1.436       .  A
C389        N396   1.434       .  S
C390        C391   1.418       .  A
C390        H395   1.082       .  S
C391        C392   1.431       .  A
C392        N393   1.434       .  S
N393        H397   1.037       .  S
N393        H398   1.044       .  S
N396        H399   1.045       .  S
N396        H400   1.046       .  S
C401        C402   1.405       .  A
C401        C406   1.409       .  A
C401        H408   1.063       .  S
C402        C403   1.430       .  A
C403        C404   1.404       .  A
C403        N410   1.432       .  S
C404        C405   1.407       .  A
C404        H409   1.066       .  S
C405        C406   1.433       .  A
C406        N407   1.438       .  S
N407        H411   1.045       .  S
N407        H412   1.044       .  S
N410        H413   1.046       .  S
N410        H414   1.046       .  S
C415        C416   1.420       .  A
C415        C420   1.430       .  A
C415        H422   1.079       .  S
C416        C417   1.406       .  A
C417        C418   1.383       .  A
C417        N424   1.413       .  S
C418        C419   1.401       .  A
C418        H423   1.086       .  S
C419        C420   1.431       .  A
C420        N421   1.430       .  S
N421        H425   1.045       .  S
N421        H426   1.045       .  S
N424        H427   1.034       .  S
N424        H428   1.033       .  S
C429        C430   1.422       .  A
C429        C434   1.423       .  A
C429        H436   1.083       .  S
C430        C431   1.409       .  A
C431        C432   1.396       .  A
C431        N438   1.411       .  S
C432        C433   1.419       .  A
C432        H437   1.081       .  S
C433        C434   1.425       .  A
C434        N435   1.420       .  S
N435        H439   1.046       .  S
N435        H440   1.046       .  S
N438        H441   1.043       .  S
N438        H442   1.045       .  S
C443        C444   1.418       .  A
C443        C448   1.398       .  A
C443        H450   1.077       .  S
C444        C445   1.437       .  A
C445        C446   1.431       .  A
C445        N452   1.438       .  S
C446        C447   1.417       .  A
C446        H451   1.082       .  S
C447        C448   1.415       .  A
C448        N449   1.431       .  S
N449        H453   1.038       .  S
N449        H454   1.046       .  S
N452        H455   1.040       .  S
N452        H456   1.045       .  S
C457        C458   1.409       .  A
C457        C462   1.408       .  A
C457        H464   1.068       .  S
C458        C459   1.431       .  A
C459        C460   1.404       .  A
C459        N466   1.433       .  S
C460        C461   1.408       .  A
C460        H465   1.066       .  S
C461        C462   1.428       .  A
C462        N463   1.432       .  S
N463        H467   1.045       .  S
N463        H468   1.043       .  S
N466        H469   1.046       .  S
N466        H470   1.045       .  S
C471        C472   1.420       .  A
C471        C476   1.424       .  A
C471        H478   1.080       .  S
C472        C473   1.421       .  A
C473        C474   1.376       .  A
C473        N480   1.430       .  S
C474        C475   1.403       .  A
C474        H479   1.077       .  S
C475        C476   1.429       .  A
C476        N477   1.429       .  S
N477        H481   1.046       .  S
N477        H482   1.046       .  S
N480        H483   1.039       .  S
N480        H484   1.040       .  S
C485        C486   1.407       .  A
C485        C490   1.389       .  A
C485        H492   1.082       .  S
C486        C487   1.435       .  A
C487        C488   1.432       .  A
C487        N494   1.438       .  S
C488        C489   1.418       .  A
C488        H493   1.082       .  S
C489        C490   1.432       .  A
C490        N491   1.430       .  S
N491        H495   1.043       .  S
N491        H496   1.046       .  S
N494        H497   1.042       .  S
N494        H498   1.045       .  S
C499        C500   1.402       .  A
C499        C504   1.390       .  A
C499        H506   1.080       .  S
C500        C501   1.431       .  A
C501        C502   1.433       .  A
C501        N508   1.429       .  S
C502        C503   1.419       .  A
C502        H507   1.082       .  S
C503        C504   1.425       .  A
C504        N505   1.436       .  S
N505        H509   1.033       .  S
N505        H510   1.036       .  S
N508        H511   1.045       .  S
N508        H512   1.045       .  S
C513        C514   1.421       .  A
C513        C518   1.433       .  A
C513        H520   1.079       .  S
C514        C515   1.422       .  A
C515        C516   1.389       .  A
C515        N522   1.433       .  S
C516        C517   1.404       .  A
C516        H521   1.080       .  S
C517        C518   1.430       .  A
C518        N519   1.428       .  S
N519        H523   1.045       .  S
N519        H524   1.046       .  S
N522        H525   1.044       .  S
N522        H526   1.035       .  S
C527        C528   1.414       .  A
C527        C532   1.404       .  A
C527        H534   1.075       .  S
C528        C529   1.427       .  A
C529        C530   1.434       .  A
C529        N536   1.433       .  S
C530        C531   1.419       .  A
C530        H535   1.081       .  S
C531        C532   1.415       .  A
C532        N533   1.430       .  S
N533        H537   1.039       .  S
N533        H538   1.045       .  S
N536        H539   1.045       .  S
N536        H540   1.045       .  S
C541        C542   1.407       .  A
C541        C546   1.405       .  A
C541        H548   1.059       .  S
C542        C543   1.422       .  A
C543        C544   1.413       .  A
C543        N550   1.432       .  S
C544        C545   1.412       .  A
C544        H549   1.059       .  S
C545        C546   1.421       .  A
C546        N547   1.435       .  S
N547        H551   1.045       .  S
N547        H552   1.041       .  S
N550        H553   1.043       .  S
N550        H554   1.045       .  S
C555        C556   1.405       .  A
C555        C560   1.414       .  A
C555        H562   1.084       .  S
C556        C557   1.415       .  A
C557        C558   1.398       .  A
C557        N564   1.433       .  S
C558        C559   1.420       .  A
C558        H563   1.079       .  S
C559        C560   1.424       .  A
C560        N561   1.431       .  S
N561        H565   1.046       .  S
N561        H566   1.046       .  S
N564        H567   1.045       .  S
N564        H568   1.045       .  S
C569        C570   1.423       .  A
C569        C574   1.390       .  A
C569        H576   1.077       .  S
C570        C571   1.422       .  A
C571        C572   1.404       .  A
C571        N578   1.426       .  S
C572        C573   1.400       .  A
C572        H577   1.084       .  S
C573        C574   1.406       .  A
C574        N575   1.433       .  S
N575        H579   1.045       .  S
N575        H580   1.045       .  S
N578        H581   1.046       .  S
N578        H582   1.046       .  S
C583        C584   1.422       .  A
C583        C588   1.398       .  A
C583        H590   1.079       .  S
C584        C585   1.422       .  A
C585        C586   1.407       .  A
C585        N592   1.430       .  S
C586        C587   1.402       .  A
C586        H591   1.084       .  S
C587        C588   1.411       .  A
C588        N589   1.433       .  S
N589        H593   1.045       .  S
N589        H594   1.045       .  S
N592        H595   1.045       .  S
N592        H596   1.046       .  S
C597        C598   1.418       .  A
C597        C602   1.413       .  A
C597        H604   1.078       .  S
C598        C599   1.436       .  A
C599        C600   1.404       .  A
C599        N606   1.431       .  S
C600        C601   1.396       .  A
C600        H605   1.084       .  S
C601        C602   1.406       .  A
C602        N603   1.432       .  S
N603        H607   1.046       .  S
N603        H608   1.046       .  S
N606        H609   1.046       .  S
N606        H610   1.046       .  S
C611        C612   1.399       .  A
C611        C616   1.406       .  A
C611        H618   1.084       .  S
C612        C613   1.410       .  A
C613        C614   1.414       .  A
C613        N620   1.432       .  S
C614        C615   1.419       .  A
C614        H619   1.080       .  S
C615        C616   1.433       .  A
C616        N617   1.430       .  S
N617        H621   1.046       .  S
N617        H622   1.046       .  S
N620        H623   1.046       .  S
N620        H624   1.046       .  S
C625        C626   1.396       .  A
C625        C630   1.399       .  A
C625        H632   1.084       .  S
C626        C627   1.411       .  A
C627        C628   1.401       .  A
C627        N634   1.432       .  S
C628        C629   1.408       .  A
C628        H633   1.081       .  S
C629        C630   1.430       .  A
C630        N631   1.433       .  S
N631        H635   1.046       .  S
N631        H636   1.046       .  S
N634        H637   1.046       .  S
N634        H638   1.046       .  S
C639        C640   1.401       .  A
C639        C644   1.405       .  A
C639        H646   1.084       .  S
C640        C641   1.404       .  A
C641        C642   1.393       .  A
C641        N648   1.434       .  S
C642        C643   1.418       .  A
C642        H647   1.077       .  S
C643        C644   1.422       .  A
C644        N645   1.430       .  S
N645        H649   1.045       .  S
N645        H650   1.046       .  S
N648        H651   1.046       .  S
N648        H652   1.046       .  S
C653        C654   1.415       .  A
C653        C658   1.404       .  A
C653        H660   1.066       .  S
C654        C655   1.436       .  A
C655        C656   1.402       .  A
C655        N662   1.431       .  S
C656        C657   1.395       .  A
C656        H661   1.084       .  S
C657        C658   1.398       .  A
C658        N659   1.432       .  S
N659        H663   1.046       .  S
N659        H664   1.046       .  S
N662        H665   1.046       .  S
N662        H666   1.046       .  S
N667        N668   1.322       .  A
N667        N673   1.316       .  A
N667      Mn1362   2.213       .  S
N668        C675   1.354       .  A
N669        N671   1.314       .  A
N669        N670   1.324       .  A
N669      Mn2350   2.205   1_554  S
N670        C676   1.355       .  A
N671        N672   1.317       .  A
N672        C676   1.354       .  A
N673        N674   1.323       .  A
N673      Mn1018   2.211   1_554  S
N674        C675   1.356       .  A
C675        C990   1.489       .  S
C676        C906   1.481       .  S
N677        N683   1.313       .  A
N677        N678   1.314       .  A
N677      Mn2039   2.186       .  S
N678        C686   1.353       .  A
N679        N680   1.325       .  A
N679        N681   1.316       .  A
N679       Mn685   2.215       .  S
N680        C687   1.356       .  A
N681        N682   1.319       .  A
N681       Mn707   2.209   1_565  S
N682        C687   1.354       .  A
N683        N684   1.323       .  A
N683      Mn2017   2.192       .  S
N684        C686   1.353       .  A
Mn685      N2334   2.193       .  S
Mn685      N1006   2.199       .  S
Mn685      N2015   2.206       .  S
Mn685     Cl1708   2.545   1_565  S
C686        C973   1.472       .  S
C687        C945   1.489       .  S
N688        N689   1.327       .  A
N688        N694   1.318       .  A
N688       Mn696   2.240       .  S
N689        C697   1.360       .  A
N690        N692   1.316       .  A
N690        N691   1.321       .  A
N690      Mn2040   2.219       .  S
N691        C698   1.355       .  A
N692        N693   1.322       .  A
N692      Mn2028   2.194       .  S
N693        C698   1.352       .  A
N694        N695   1.323       .  A
N694       Mn708   2.218   1_455  S
N695        C697   1.356       .  A
Mn696      N1333   2.218   1_455  S
Mn696      N2024   2.195   1_455  S
Mn696      Cl709   2.553   1_455  S
C697        C934   1.506       .  S
C698        C920   1.487       .  S
N699        N700   1.317       .  A
N699        N705   1.317       .  A
N700        C710   1.348       .  A
N701        N702   1.319       .  A
N701        N703   1.316       .  A
N701      Mn1041   2.200       .  S
N702        C711   1.352       .  A
N703        N704   1.323       .  A
N703      Mn1373   2.216       .  S
N704        C711   1.357       .  A
N705        N706   1.318       .  A
N705      Mn2373   2.194       .  S
N706        C710   1.351       .  A
Mn707      N2009   2.202   1_545  S
Mn707      N1369   2.197       .  S
Mn707     Cl1708   2.550       .  S
Mn708      N2022   2.214       .  S
Mn708      N1034   2.216   1_654  S
Mn708      N2370   2.198   1_554  S
Mn708      Cl709   2.547       .  S
Cl709     Mn1684   2.548   1_554  S
Cl709     Mn1706   2.549   1_654  S
C710        C959   1.461       .  S
C711        C889   1.494       .  S
C712        C847   1.608       .  S
C712        C861   1.581       .  S
C712        C875   1.621       .  S
C712        C892   1.576       .  S
C713        C819   1.577       .  S
C713        C833   1.626       .  S
C713        C878   1.628       .  S
C713        C976   1.564       .  S
C714        C791   1.596       .  S
C714        C805   1.586       .  S
C714        C822   1.574       .  S
C714        C903   1.573       .  S
C715        C780   1.609       .  S
C715        C794   1.591       .  S
C715        C850   1.591       .  S
C715        C931   1.564       .  S
C716        C749   1.603       .  S
C716        C763   1.619       .  S
C716        C864   1.592       .  S
C716        C962   1.570       .  S
C717        C735   1.594       .  S
C717        C752   1.590       .  S
C717        C777   1.602       .  S
C717        C917   1.582       .  S
C718        C724   1.602       .  S
C718        C738   1.609       .  S
C718        C808   1.584       .  S
C718        C987   1.575       .  S
C719        C721   1.605       .  S
C719        C766   1.597       .  S
C719        C836   1.596       .  S
C719        C948   1.568       .  S
C720        C721   1.415       .  A
C720        C725   1.403       .  A
C720        H727   1.084       .  S
C721        C722   1.425       .  A
C722        C723   1.422       .  A
C722        N729   1.421       .  S
C723        C724   1.408       .  A
C723        H728   1.079       .  S
C724        C725   1.436       .  A
C725        N726   1.432       .  S
N726        H730   1.046       .  S
N726        H731   1.044       .  S
N729        H732   1.045       .  S
N729        H733   1.046       .  S
C734        C735   1.402       .  A
C734        C739   1.408       .  A
C734        H741   1.059       .  S
C735        C736   1.429       .  A
C736        C737   1.408       .  A
C736        N743   1.434       .  S
C737        C738   1.414       .  A
C737        H742   1.060       .  S
C738        C739   1.435       .  A
C739        N740   1.438       .  S
N740        H744   1.046       .  S
N740        H745   1.041       .  S
N743        H746   1.046       .  S
N743        H747   1.046       .  S
C748        C749   1.427       .  A
C748        C753   1.424       .  A
C748        H755   1.078       .  S
C749        C750   1.415       .  A
C750        C751   1.407       .  A
C750        N757   1.419       .  S
C751        C752   1.410       .  A
C751        H756   1.082       .  S
C752        C753   1.420       .  A
C753        N754   1.428       .  S
N754        H758   1.045       .  S
N754        H759   1.046       .  S
N757        H760   1.042       .  S
N757        H761   1.038       .  S
C762        C763   1.440       .  A
C762        C767   1.427       .  A
C762        H769   1.068       .  S
C763        C764   1.440       .  A
C764        C765   1.389       .  A
C764        N771   1.424       .  S
C765        C766   1.402       .  A
C765        H770   1.081       .  S
C766        C767   1.411       .  A
C767        N768   1.437       .  S
N768        H772   1.046       .  S
N768        H773   1.043       .  S
N771        H774   1.038       .  S
N771        H775   1.043       .  S
C776        C777   1.421       .  A
C776        C781   1.409       .  A
C776        H783   1.079       .  S
C777        C778   1.440       .  A
C778        C779   1.430       .  A
C778        N785   1.438       .  S
C779        C780   1.418       .  A
C779        H784   1.081       .  S
C780        C781   1.415       .  A
C781        N782   1.436       .  S
N782        H786   1.045       .  S
N782        H787   1.045       .  S
N785        H788   1.040       .  S
N785        H789   1.045       .  S
C790        C791   1.410       .  A
C790        C795   1.430       .  A
C790        H797   1.083       .  S
C791        C792   1.416       .  A
C792        C793   1.395       .  A
C792        N799   1.436       .  S
C793        C794   1.407       .  A
C793        H798   1.069       .  S
C794        C795   1.435       .  A
C795        N796   1.427       .  S
N796        H800   1.045       .  S
N796        H801   1.045       .  S
N799        H802   1.042       .  S
N799        H803   1.042       .  S
C804        C805   1.426       .  A
C804        C809   1.432       .  A
C804        H811   1.079       .  S
C805        C806   1.434       .  A
C806        C807   1.379       .  A
C806        N813   1.438       .  S
C807        C808   1.396       .  A
C807        H812   1.076       .  S
C808        C809   1.424       .  A
C809        N810   1.429       .  S
N810        H814   1.045       .  S
N810        H815   1.045       .  S
N813        H816   1.045       .  S
N813        H817   1.030       .  S
C818        C819   1.412       .  A
C818        C823   1.405       .  A
C818        H825   1.083       .  S
C819        C820   1.422       .  A
C820        C821   1.396       .  A
C820        N827   1.436       .  S
C821        C822   1.414       .  A
C821        H826   1.067       .  S
C822        C823   1.429       .  A
C823        N824   1.432       .  S
N824        H828   1.043       .  S
N824        H829   1.045       .  S
N827        H830   1.040       .  S
N827        H831   1.043       .  S
C832        C833   1.405       .  A
C832        C837   1.381       .  A
C832        H839   1.071       .  S
C833        C834   1.445       .  A
C834        C835   1.441       .  A
C834        N841   1.428       .  S
C835        C836   1.418       .  A
C835        H840   1.080       .  S
C836        C837   1.421       .  A
C837        N838   1.441       .  S
N838        H842   1.036       .  S
N838        H843   1.037       .  S
N841        H844   1.045       .  S
N841        H845   1.046       .  S
C846        C847   1.427       .  A
C846        C851   1.434       .  A
C846        H853   1.083       .  S
C847        C848   1.429       .  A
C848        C849   1.395       .  A
C848        N855   1.421       .  S
C849        C850   1.397       .  A
C849        H854   1.078       .  S
C850        C851   1.433       .  A
C851        N852   1.429       .  S
N852        H856   1.045       .  S
N852        H857   1.046       .  S
N855        H858   1.037       .  S
N855        H859   1.045       .  S
C860        C861   1.409       .  A
C860        C865   1.428       .  A
C860        H867   1.080       .  S
C861        C862   1.421       .  A
C862        C863   1.413       .  A
C862        N869   1.430       .  S
C863        C864   1.407       .  A
C863        H868   1.082       .  S
C864        C865   1.424       .  A
C865        N866   1.434       .  S
N866        H870   1.045       .  S
N866        H871   1.045       .  S
N869        H872   1.046       .  S
N869        H873   1.040       .  S
C874        C875   1.425       .  A
C874        C879   1.440       .  A
C874        H881   1.073       .  S
C875        C876   1.408       .  A
C876        C877   1.380       .  A
C876        N883   1.420       .  S
C877        C878   1.400       .  A
C877        H882   1.052       .  S
C878        C879   1.459       .  A
C879        N880   1.430       .  S
N880        H884   1.042       .  S
N880        H885   1.042       .  S
N883        H886   1.037       .  S
N883        H887   1.042       .  S
C888        C889   1.400       .  A
C888        C893   1.408       .  A
C888        H895   1.084       .  S
C889        C890   1.413       .  A
C890        C891   1.398       .  A
C890        N897   1.433       .  S
C891        C892   1.413       .  A
C891        H896   1.067       .  S
C892        C893   1.434       .  A
C893        N894   1.433       .  S
N894        H898   1.046       .  S
N894        H899   1.046       .  S
N897        H900   1.045       .  S
N897        H901   1.045       .  S
C902        C903   1.417       .  A
C902        C907   1.409       .  A
C902        H909   1.075       .  S
C903        C904   1.442       .  A
C904        C905   1.393       .  A
C904        N911   1.432       .  S
C905        C906   1.389       .  A
C905        H910   1.085       .  S
C906        C907   1.410       .  A
C907        N908   1.432       .  S
N908        H912   1.046       .  S
N908        H913   1.045       .  S
N911        H914   1.046       .  S
N911        H915   1.046       .  S
C916        C917   1.426       .  A
C916        C921   1.395       .  A
C916        H923   1.077       .  S
C917        C918   1.430       .  A
C918        C919   1.411       .  A
C918        N925   1.429       .  S
C919        C920   1.400       .  A
C919        H924   1.084       .  S
C920        C921   1.407       .  A
C921        N922   1.434       .  S
N922        H926   1.045       .  S
N922        H927   1.045       .  S
N925        H928   1.045       .  S
N925        H929   1.046       .  S
C930        C931   1.416       .  A
C930        C935   1.412       .  A
C930        H937   1.080       .  S
C931        C932   1.425       .  A
C932        C933   1.411       .  A
C932        N939   1.432       .  S
C933        C934   1.406       .  A
C933        H938   1.083       .  S
C934        C935   1.411       .  A
C935        N936   1.432       .  S
N936        H940   1.046       .  S
N936        H941   1.046       .  S
N939        H942   1.045       .  S
N939        H943   1.046       .  S
C944        C945   1.402       .  A
C944        C949   1.414       .  A
C944        H951   1.084       .  S
C945        C946   1.404       .  A
C946        C947   1.399       .  A
C946        N953   1.433       .  S
C947        C948   1.420       .  A
C947        H952   1.078       .  S
C948        C949   1.427       .  A
C949        N950   1.430       .  S
N950        H954   1.046       .  S
N950        H955   1.046       .  S
N953        H956   1.045       .  S
N953        H957   1.046       .  S
C958        C959   1.394       .  A
C958        C963   1.401       .  A
C958        H965   1.085       .  S
C959        C960   1.397       .  A
C960        C961   1.389       .  A
C960        N967   1.434       .  S
C961        C962   1.421       .  A
C961        H966   1.075       .  S
C962        C963   1.446       .  A
C963        N964   1.445       .  S
N964        H968   1.046       .  S
N964        H969   1.040       .  S
N967        H970   1.045       .  S
N967        H971   1.046       .  S
C972        C973   1.387       .  A
C972        C977   1.387       .  A
C972        H979   1.085       .  S
C973        C974   1.405       .  A
C974        C975   1.414       .  A
C974        N981   1.437       .  S
C975        C976   1.416       .  A
C975        H980   1.084       .  S
C976        C977   1.441       .  A
C977        N978   1.433       .  S
N978        H982   1.046       .  S
N978        H983   1.046       .  S
N981        H984   1.045       .  S
N981        H985   1.046       .  S
C986        C987   1.416       .  A
C986        C991   1.406       .  A
C986        H993   1.071       .  S
C987        C988   1.438       .  A
C988        C989   1.407       .  A
C988        N995   1.431       .  S
C989        C990   1.397       .  A
C989        H994   1.084       .  S
C990        C991   1.404       .  A
C991        N992   1.432       .  S
N992        H996   1.046       .  S
N992        H997   1.046       .  S
N995        H998   1.046       .  S
N995        H999   1.046       .  S
N1000      N1001   1.323       .  A
N1000      N1006   1.317       .  A
N1000     Mn1695   2.214   1_565  S
N1001      C1008   1.355       .  A
N1002      N1004   1.313       .  A
N1002      N1003   1.312       .  A
N1002     Mn2017   2.171       .  S
N1003      C1009   1.347       .  A
N1004      N1005   1.318       .  A
N1005      C1009   1.352       .  A
N1006      N1007   1.318       .  A
N1007      C1008   1.351       .  A
C1008      C1323   1.479       .  S
C1009      C1239   1.462       .  S
N1010      N1016   1.315       .  A
N1010      N1011   1.320       .  A
N1010     Mn2372   2.184   1_565  S
N1011      C1019   1.352       .  A
N1012      N1013   1.321       .  A
N1012      N1014   1.316       .  A
N1012     Mn1018   2.212       .  S
N1013      C1020   1.356       .  A
N1014      N1015   1.326       .  A
N1014     Mn1040   2.229       .  S
N1015      C1020   1.357       .  A
N1016      N1017   1.315       .  A
N1016     Mn2350   2.193       .  S
N1017      C1019   1.351       .  A
Mn1018     N2001   2.200   1_556  S
Mn1018     N2348   2.189       .  S
Mn1018    Cl1375   2.552       .  S
C1019      C1306   1.471       .  S
C1020      C1278   1.497       .  S
N1021      N1022   1.328       .  A
N1021      N1027   1.315       .  A
N1021     Mn1029   2.234       .  S
N1022      C1030   1.360       .  A
N1023      N1025   1.315       .  A
N1023      N1024   1.322       .  A
N1023     Mn2373   2.224       .  S
N1024      C1031   1.357       .  A
N1025      N1026   1.320       .  A
N1025     Mn2361   2.191       .  S
N1026      C1031   1.352       .  A
N1027      N1028   1.321       .  A
N1027     Mn1041   2.212       .  S
N1028      C1030   1.355       .  A
Mn1029     N1666   2.218   1_455  S
Mn1029     N2357   2.199   1_455  S
Mn1029    Cl1042   2.552       .  S
C1030      C1267   1.500       .  S
C1031      C1253   1.488       .  S
N1032      N1033   1.318       .  A
N1032      N1038   1.315       .  A
N1033      C1043   1.350       .  A
N1034      N1035   1.322       .  A
N1034      N1036   1.318       .  A
N1035      C1044   1.354       .  A
N1036      N1037   1.325       .  A
N1036     Mn1706   2.223       .  S
N1037      C1044   1.356       .  A
N1038      N1039   1.316       .  A
N1038     Mn2040   2.199   1_556  S
N1039      C1043   1.353       .  A
Mn1040     N2342   2.205       .  S
Mn1040     N1702   2.232   1_565  S
Mn1040    Cl1375   2.555       .  S
Mn1041     N2355   2.203   1_455  S
Mn1041     N2037   2.200   1_455  S
Mn1041    Cl1042   2.541       .  S
Cl1042    Mn1351   2.555       .  S
Cl1042    Mn1373   2.553       .  S
C1043      C1292   1.471       .  S
C1044      C1222   1.497       .  S
C1045      C1180   1.598       .  S
C1045      C1194   1.592       .  S
C1045      C1208   1.599       .  S
C1045      C1225   1.561       .  S
C1046      C1152   1.599       .  S
C1046      C1166   1.592       .  S
C1046      C1211   1.591       .  S
C1046      C1309   1.551       .  S
C1047      C1124   1.584       .  S
C1047      C1138   1.563       .  S
C1047      C1155   1.594       .  S
C1047      C1236   1.557       .  S
C1048      C1113   1.609       .  S
C1048      C1127   1.595       .  S
C1048      C1183   1.591       .  S
C1048      C1264   1.572       .  S
C1049      C1082   1.589       .  S
C1049      C1096   1.592       .  S
C1049      C1197   1.594       .  S
C1049      C1295   1.546       .  S
C1050      C1068   1.590       .  S
C1050      C1085   1.584       .  S
C1050      C1110   1.614       .  S
C1050      C1250   1.570       .  S
C1051      C1057   1.610       .  S
C1051      C1071   1.596       .  S
C1051      C1141   1.579       .  S
C1051      C1320   1.572       .  S
C1052      C1054   1.612       .  S
C1052      C1099   1.608       .  S
C1052      C1169   1.593       .  S
C1052      C1281   1.572       .  S
C1053      C1054   1.417       .  A
C1053      C1058   1.398       .  A
C1053      H1060   1.083       .  S
C1054      C1055   1.424       .  A
C1055      C1056   1.437       .  A
C1055      N1062   1.436       .  S
C1056      C1057   1.419       .  A
C1056      H1061   1.082       .  S
C1057      C1058   1.435       .  A
C1058      N1059   1.433       .  S
N1059      H1063   1.037       .  S
N1059      H1064   1.044       .  S
N1062      H1065   1.045       .  S
N1062      H1066   1.045       .  S
C1067      C1068   1.403       .  A
C1067      C1072   1.410       .  A
C1067      H1074   1.064       .  S
C1068      C1069   1.434       .  A
C1069      C1070   1.405       .  A
C1069      N1076   1.431       .  S
C1070      C1071   1.405       .  A
C1070      H1075   1.068       .  S
C1071      C1072   1.435       .  A
C1072      N1073   1.438       .  S
N1073      H1077   1.045       .  S
N1073      H1078   1.044       .  S
N1076      H1079   1.045       .  S
N1076      H1080   1.046       .  S
C1081      C1082   1.420       .  A
C1081      C1086   1.425       .  A
C1081      H1088   1.078       .  S
C1082      C1083   1.417       .  A
C1083      C1084   1.393       .  A
C1083      N1090   1.434       .  S
C1084      C1085   1.406       .  A
C1084      H1089   1.085       .  S
C1085      C1086   1.428       .  A
C1086      N1087   1.430       .  S
N1087      H1091   1.045       .  S
N1087      H1092   1.045       .  S
N1090      H1093   1.040       .  S
N1090      H1094   1.036       .  S
C1095      C1096   1.419       .  A
C1095      C1100   1.415       .  A
C1095      H1102   1.084       .  S
C1096      C1097   1.416       .  A
C1097      C1098   1.399       .  A
C1097      N1104   1.419       .  S
C1098      C1099   1.425       .  A
C1098      H1103   1.080       .  S
C1099      C1100   1.425       .  A
C1100      N1101   1.419       .  S
N1101      H1105   1.045       .  S
N1101      H1106   1.046       .  S
N1104      H1107   1.042       .  S
N1104      H1108   1.046       .  S
C1109      C1110   1.418       .  A
C1109      C1114   1.401       .  A
C1109      H1116   1.073       .  S
C1110      C1111   1.440       .  A
C1111      C1112   1.433       .  A
C1111      N1118   1.438       .  S
C1112      C1113   1.418       .  A
C1112      H1117   1.081       .  S
C1113      C1114   1.415       .  A
C1114      N1115   1.432       .  S
N1115      H1119   1.040       .  S
N1115      H1120   1.045       .  S
N1118      H1121   1.040       .  S
N1118      H1122   1.046       .  S
C1123      C1124   1.412       .  A
C1123      C1128   1.411       .  A
C1123      H1130   1.067       .  S
C1124      C1125   1.430       .  A
C1125      C1126   1.403       .  A
C1125      N1132   1.434       .  S
C1126      C1127   1.408       .  A
C1126      H1131   1.068       .  S
C1127      C1128   1.428       .  A
C1128      N1129   1.439       .  S
N1129      H1133   1.044       .  S
N1129      H1134   1.045       .  S
N1132      H1135   1.046       .  S
N1132      H1136   1.046       .  S
C1137      C1138   1.421       .  A
C1137      C1142   1.422       .  A
C1137      H1144   1.080       .  S
C1138      C1139   1.418       .  A
C1139      C1140   1.378       .  A
C1139      N1146   1.435       .  S
C1140      C1141   1.407       .  A
C1140      H1145   1.077       .  S
C1141      C1142   1.426       .  A
C1142      N1143   1.429       .  S
N1143      H1147   1.046       .  S
N1143      H1148   1.045       .  S
N1146      H1149   1.041       .  S
N1146      H1150   1.043       .  S
C1151      C1152   1.403       .  A
C1151      C1156   1.387       .  A
C1151      H1158   1.082       .  S
C1152      C1153   1.434       .  A
C1153      C1154   1.427       .  A
C1153      N1160   1.438       .  S
C1154      C1155   1.417       .  A
C1154      H1159   1.083       .  S
C1155      C1156   1.431       .  A
C1156      N1157   1.427       .  S
N1157      H1161   1.043       .  S
N1157      H1162   1.046       .  S
N1160      H1163   1.040       .  S
N1160      H1164   1.045       .  S
C1165      C1166   1.396       .  A
C1165      C1170   1.390       .  A
C1165      H1172   1.083       .  S
C1166      C1167   1.435       .  A
C1167      C1168   1.436       .  A
C1167      N1174   1.430       .  S
C1168      C1169   1.419       .  A
C1168      H1173   1.082       .  S
C1169      C1170   1.417       .  A
C1170      N1171   1.426       .  S
N1171      H1175   1.025       .  S
N1171      H1176   1.039       .  S
N1174      H1177   1.045       .  S
N1174      H1178   1.045       .  S
C1179      C1180   1.424       .  A
C1179      C1184   1.441       .  A
C1179      H1186   1.081       .  S
C1180      C1181   1.407       .  A
C1181      C1182   1.377       .  A
C1181      N1188   1.409       .  S
C1182      C1183   1.394       .  A
C1182      H1187   1.083       .  S
C1183      C1184   1.434       .  A
C1184      N1185   1.428       .  S
N1185      H1189   1.045       .  S
N1185      H1190   1.045       .  S
N1188      H1191   1.045       .  S
N1188      H1192   1.037       .  S
C1193      C1194   1.406       .  A
C1193      C1198   1.396       .  A
C1193      H1200   1.076       .  S
C1194      C1195   1.424       .  A
C1195      C1196   1.430       .  A
C1195      N1202   1.433       .  S
C1196      C1197   1.418       .  A
C1196      H1201   1.081       .  S
C1197      C1198   1.423       .  A
C1198      N1199   1.428       .  S
N1199      H1203   1.038       .  S
N1199      H1204   1.046       .  S
N1202      H1205   1.045       .  S
N1202      H1206   1.045       .  S
C1207      C1208   1.417       .  A
C1207      C1212   1.414       .  A
C1207      H1214   1.061       .  S
C1208      C1209   1.419       .  A
C1209      C1210   1.406       .  A
C1209      N1216   1.432       .  S
C1210      C1211   1.412       .  A
C1210      H1215   1.059       .  S
C1211      C1212   1.420       .  A
C1212      N1213   1.435       .  S
N1213      H1217   1.045       .  S
N1213      H1218   1.041       .  S
N1216      H1219   1.043       .  S
N1216      H1220   1.045       .  S
C1221      C1222   1.402       .  A
C1221      C1226   1.410       .  A
C1221      H1228   1.084       .  S
C1222      C1223   1.417       .  A
C1223      C1224   1.404       .  A
C1223      N1230   1.433       .  S
C1224      C1225   1.416       .  A
C1224      H1229   1.080       .  S
C1225      C1226   1.423       .  A
C1226      N1227   1.431       .  S
N1227      H1231   1.046       .  S
N1227      H1232   1.046       .  S
N1230      H1233   1.045       .  S
N1230      H1234   1.045       .  S
C1235      C1236   1.420       .  A
C1235      C1240   1.381       .  A
C1235      H1242   1.077       .  S
C1236      C1237   1.423       .  A
C1237      C1238   1.401       .  A
C1237      N1244   1.427       .  S
C1238      C1239   1.396       .  A
C1238      H1243   1.084       .  S
C1239      C1240   1.406       .  A
C1240      N1241   1.434       .  S
N1241      H1245   1.045       .  S
N1241      H1246   1.045       .  S
N1244      H1247   1.046       .  S
N1244      H1248   1.046       .  S
C1249      C1250   1.425       .  A
C1249      C1254   1.395       .  A
C1249      H1256   1.078       .  S
C1250      C1251   1.422       .  A
C1251      C1252   1.410       .  A
C1251      N1258   1.430       .  S
C1252      C1253   1.404       .  A
C1252      H1257   1.084       .  S
C1253      C1254   1.408       .  A
C1254      N1255   1.433       .  S
N1255      H1259   1.045       .  S
N1255      H1260   1.045       .  S
N1258      H1261   1.045       .  S
N1258      H1262   1.046       .  S
C1263      C1264   1.418       .  A
C1263      C1268   1.416       .  A
C1263      H1270   1.079       .  S
C1264      C1265   1.433       .  A
C1265      C1266   1.406       .  A
C1265      N1272   1.431       .  S
C1266      C1267   1.399       .  A
C1266      H1271   1.084       .  S
C1267      C1268   1.408       .  A
C1268      N1269   1.431       .  S
N1269      H1273   1.046       .  S
N1269      H1274   1.046       .  S
N1272      H1275   1.046       .  S
N1272      H1276   1.046       .  S
C1277      C1278   1.397       .  A
C1277      C1282   1.403       .  A
C1277      H1284   1.084       .  S
C1278      C1279   1.409       .  A
C1279      C1280   1.414       .  A
C1279      N1286   1.432       .  S
C1280      C1281   1.418       .  A
C1280      H1285   1.081       .  S
C1281      C1282   1.435       .  A
C1282      N1283   1.430       .  S
N1283      H1287   1.046       .  S
N1283      H1288   1.046       .  S
N1286      H1289   1.045       .  S
N1286      H1290   1.046       .  S
C1291      C1292   1.393       .  A
C1291      C1296   1.392       .  A
C1291      H1298   1.084       .  S
C1292      C1293   1.406       .  A
C1293      C1294   1.401       .  A
C1293      N1300   1.432       .  S
C1294      C1295   1.411       .  A
C1294      H1299   1.077       .  S
C1295      C1296   1.429       .  A
C1296      N1297   1.431       .  S
N1297      H1301   1.046       .  S
N1297      H1302   1.046       .  S
N1300      H1303   1.046       .  S
N1300      H1304   1.046       .  S
C1305      C1306   1.398       .  A
C1305      C1310   1.405       .  A
C1305      H1312   1.084       .  S
C1306      C1307   1.403       .  A
C1307      C1308   1.392       .  A
C1307      N1314   1.434       .  S
C1308      C1309   1.416       .  A
C1308      H1313   1.078       .  S
C1309      C1310   1.425       .  A
C1310      N1311   1.431       .  S
N1311      H1315   1.045       .  S
N1311      H1316   1.046       .  S
N1314      H1317   1.046       .  S
N1314      H1318   1.046       .  S
C1319      C1320   1.415       .  A
C1319      C1324   1.406       .  A
C1319      H1326   1.065       .  S
C1320      C1321   1.437       .  A
C1321      C1322   1.403       .  A
C1321      N1328   1.432       .  S
C1322      C1323   1.394       .  A
C1322      H1327   1.084       .  S
C1323      C1324   1.399       .  A
C1324      N1325   1.432       .  S
N1325      H1329   1.046       .  S
N1325      H1330   1.046       .  S
N1328      H1331   1.046       .  S
N1328      H1332   1.046       .  S
N1333      N1334   1.323       .  A
N1333      N1339   1.317       .  A
N1334      C1341   1.355       .  A
N1335      N1337   1.315       .  A
N1335      N1336   1.319       .  A
N1336      C1342   1.353       .  A
N1337      N1338   1.321       .  A
N1337     Mn2028   2.197       .  S
N1338      C1342   1.353       .  A
N1339      N1340   1.318       .  A
N1339     Mn1684   2.192   1_554  S
N1340      C1341   1.352       .  A
C1341      C1656   1.479       .  S
C1342      C1572   1.481       .  S
N1343      N1349   1.314       .  A
N1343      N1344   1.320       .  A
N1344      C1352   1.352       .  A
N1345      N1346   1.325       .  A
N1345      N1347   1.317       .  A
N1345     Mn1351   2.223   1_655  S
N1346      C1353   1.357       .  A
N1347      N1348   1.324       .  A
N1347     Mn1373   2.230   1_655  S
N1348      C1353   1.358       .  A
N1349      N1350   1.318       .  A
N1350      C1352   1.352       .  A
Mn1351     N1672   2.216   1_455  S
C1352      C1639   1.472       .  S
C1353      C1611   1.504       .  S
N1354      N1355   1.327       .  A
N1354      N1360   1.316       .  A
N1354     Mn1362   2.221   1_545  S
N1355      C1363   1.357       .  A
N1356      N1358   1.317       .  A
N1356      N1357   1.316       .  A
N1357      C1364   1.349       .  A
N1358      N1359   1.320       .  A
N1359      C1364   1.353       .  A
N1360      N1361   1.320       .  A
N1360     Mn1374   2.216       .  S
N1361      C1363   1.356       .  A
Mn1362     N2003   2.193       .  S
Mn1362    Cl1375   2.548   1_554  S
C1363      C1600   1.497       .  S
C1364      C1586   1.472       .  S
N1365      N1366   1.318       .  A
N1365      N1371   1.315       .  A
N1365     Mn2039   2.187   1_645  S
N1366      C1376   1.351       .  A
N1367      N1368   1.316       .  A
N1367      N1369   1.315       .  A
N1367     Mn1707   2.204       .  S
N1368      C1377   1.352       .  A
N1369      N1370   1.323       .  A
N1370      C1377   1.354       .  A
N1371      N1372   1.320       .  A
N1372      C1376   1.353       .  A
Mn1373     N2031   2.206   1_455  S
Mn1374     N1700   2.214   1_554  S
Mn1374    Cl1375   2.544   1_544  S
C1376      C1625   1.472       .  S
C1377      C1555   1.487       .  S
C1378      C1513   1.587       .  S
C1378      C1527   1.597       .  S
C1378      C1541   1.584       .  S
C1378      C1558   1.561       .  S
C1379      C1485   1.608       .  S
C1379      C1499   1.600       .  S
C1379      C1544   1.589       .  S
C1379      C1642   1.550       .  S
C1380      C1457   1.593       .  S
C1380      C1471   1.568       .  S
C1380      C1488   1.600       .  S
C1380      C1569   1.568       .  S
C1381      C1446   1.593       .  S
C1381      C1460   1.600       .  S
C1381      C1516   1.589       .  S
C1381      C1597   1.571       .  S
C1382      C1415   1.582       .  S
C1382      C1429   1.609       .  S
C1382      C1530   1.636       .  S
C1382      C1628   1.568       .  S
C1383      C1401   1.590       .  S
C1383      C1418   1.574       .  S
C1383      C1443   1.597       .  S
C1383      C1583   1.564       .  S
C1384      C1390   1.608       .  S
C1384      C1404   1.599       .  S
C1384      C1474   1.575       .  S
C1384      C1653   1.574       .  S
C1385      C1387   1.612       .  S
C1385      C1432   1.610       .  S
C1385      C1502   1.601       .  S
C1385      C1614   1.578       .  S
C1386      C1387   1.416       .  A
C1386      C1391   1.399       .  A
C1386      H1393   1.083       .  S
C1387      C1388   1.429       .  A
C1388      C1389   1.427       .  A
C1388      N1395   1.423       .  S
C1389      C1390   1.407       .  A
C1389      H1394   1.081       .  S
C1390      C1391   1.440       .  A
C1391      N1392   1.434       .  S
N1392      H1396   1.036       .  S
N1392      H1397   1.044       .  S
N1395      H1398   1.046       .  S
N1395      H1399   1.046       .  S
C1400      C1401   1.403       .  A
C1400      C1405   1.405       .  A
C1400      H1407   1.062       .  S
C1401      C1402   1.431       .  A
C1402      C1403   1.406       .  A
C1402      N1409   1.435       .  S
C1403      C1404   1.411       .  A
C1403      H1408   1.064       .  S
C1404      C1405   1.434       .  A
C1405      N1406   1.440       .  S
N1406      H1410   1.045       .  S
N1406      H1411   1.043       .  S
N1409      H1412   1.046       .  S
N1409      H1413   1.046       .  S
C1414      C1415   1.421       .  A
C1414      C1419   1.415       .  A
C1414      H1421   1.078       .  S
C1415      C1416   1.412       .  A
C1416      C1417   1.395       .  A
C1416      N1423   1.423       .  S
C1417      C1418   1.404       .  A
C1417      H1422   1.085       .  S
C1418      C1419   1.420       .  A
C1419      N1420   1.428       .  S
N1420      H1424   1.045       .  S
N1420      H1425   1.046       .  S
N1423      H1426   1.042       .  S
N1423      H1427   1.027       .  S
C1428      C1429   1.427       .  A
C1428      C1433   1.428       .  A
C1428      H1435   1.067       .  S
C1429      C1430   1.417       .  A
C1430      C1431   1.398       .  A
C1430      N1437   1.414       .  S
C1431      C1432   1.419       .  A
C1431      H1436   1.079       .  S
C1432      C1433   1.413       .  A
C1433      N1434   1.430       .  S
N1434      H1438   1.046       .  S
N1434      H1439   1.045       .  S
N1437      H1440   1.039       .  S
N1437      H1441   1.046       .  S
C1442      C1443   1.419       .  A
C1442      C1447   1.390       .  A
C1442      H1449   1.081       .  S
C1443      C1444   1.438       .  A
C1444      C1445   1.428       .  A
C1444      N1451   1.439       .  S
C1445      C1446   1.414       .  A
C1445      H1450   1.082       .  S
C1446      C1447   1.413       .  A
C1447      N1448   1.431       .  S
N1448      H1452   1.039       .  S
N1448      H1453   1.046       .  S
N1451      H1454   1.041       .  S
N1451      H1455   1.045       .  S
C1456      C1457   1.412       .  A
C1456      C1461   1.414       .  A
C1456      H1463   1.070       .  S
C1457      C1458   1.431       .  A
C1458      C1459   1.409       .  A
C1458      N1465   1.432       .  S
C1459      C1460   1.410       .  A
C1459      H1464   1.067       .  S
C1460      C1461   1.428       .  A
C1461      N1462   1.431       .  S
N1462      H1466   1.045       .  S
N1462      H1467   1.041       .  S
N1465      H1468   1.045       .  S
N1465      H1469   1.045       .  S
C1470      C1471   1.421       .  A
C1470      C1475   1.426       .  A
C1470      H1477   1.080       .  S
C1471      C1472   1.421       .  A
C1472      C1473   1.374       .  A
C1472      N1479   1.429       .  S
C1473      C1474   1.403       .  A
C1473      H1478   1.080       .  S
C1474      C1475   1.426       .  A
C1475      N1476   1.428       .  S
N1476      H1480   1.046       .  S
N1476      H1481   1.045       .  S
N1479      H1482   1.038       .  S
N1479      H1483   1.040       .  S
C1484      C1485   1.403       .  A
C1484      C1489   1.392       .  A
C1484      H1491   1.082       .  S
C1485      C1486   1.437       .  A
C1486      C1487   1.427       .  A
C1486      N1493   1.437       .  S
C1487      C1488   1.415       .  A
C1487      H1492   1.082       .  S
C1488      C1489   1.439       .  A
C1489      N1490   1.430       .  S
N1490      H1494   1.044       .  S
N1490      H1495   1.046       .  S
N1493      H1496   1.037       .  S
N1493      H1497   1.045       .  S
C1498      C1499   1.396       .  A
C1498      C1503   1.389       .  A
C1498      H1505   1.083       .  S
C1499      C1500   1.435       .  A
C1500      C1501   1.440       .  A
C1500      N1507   1.431       .  S
C1501      C1502   1.422       .  A
C1501      H1506   1.081       .  S
C1502      C1503   1.424       .  A
C1503      N1504   1.427       .  S
N1504      H1508   1.027       .  S
N1504      H1509   1.039       .  S
N1507      H1510   1.044       .  S
N1507      H1511   1.046       .  S
C1512      C1513   1.422       .  A
C1512      C1517   1.433       .  A
C1512      H1519   1.080       .  S
C1513      C1514   1.413       .  A
C1514      C1515   1.383       .  A
C1514      N1521   1.428       .  S
C1515      C1516   1.403       .  A
C1515      H1520   1.079       .  S
C1516      C1517   1.430       .  A
C1517      N1518   1.428       .  S
N1518      H1522   1.045       .  S
N1518      H1523   1.046       .  S
N1521      H1524   1.044       .  S
N1521      H1525   1.027       .  S
C1526      C1527   1.412       .  A
C1526      C1531   1.407       .  A
C1526      H1533   1.072       .  S
C1527      C1528   1.423       .  A
C1528      C1529   1.433       .  A
C1528      N1535   1.433       .  S
C1529      C1530   1.428       .  A
C1529      H1534   1.073       .  S
C1530      C1531   1.427       .  A
C1531      N1532   1.435       .  S
N1532      H1536   1.045       .  S
N1532      H1537   1.046       .  S
N1535      H1538   1.045       .  S
N1535      H1539   1.045       .  S
C1540      C1541   1.406       .  A
C1540      C1545   1.407       .  A
C1540      H1547   1.061       .  S
C1541      C1542   1.421       .  A
C1542      C1543   1.411       .  A
C1542      N1549   1.431       .  S
C1543      C1544   1.412       .  A
C1543      H1548   1.061       .  S
C1544      C1545   1.420       .  A
C1545      N1546   1.432       .  S
N1546      H1550   1.045       .  S
N1546      H1551   1.044       .  S
N1549      H1552   1.042       .  S
N1549      H1553   1.045       .  S
C1554      C1555   1.405       .  A
C1554      C1559   1.412       .  A
C1554      H1561   1.084       .  S
C1555      C1556   1.412       .  A
C1556      C1557   1.389       .  A
C1556      N1563   1.434       .  S
C1557      C1558   1.418       .  A
C1557      H1562   1.078       .  S
C1558      C1559   1.422       .  A
C1559      N1560   1.432       .  S
N1560      H1564   1.046       .  S
N1560      H1565   1.045       .  S
N1563      H1566   1.045       .  S
N1563      H1567   1.045       .  S
C1568      C1569   1.421       .  A
C1568      C1573   1.394       .  A
C1568      H1575   1.078       .  S
C1569      C1570   1.425       .  A
C1570      C1571   1.407       .  A
C1570      N1577   1.427       .  S
C1571      C1572   1.399       .  A
C1571      H1576   1.084       .  S
C1572      C1573   1.409       .  A
C1573      N1574   1.433       .  S
N1574      H1578   1.044       .  S
N1574      H1579   1.046       .  S
N1577      H1580   1.046       .  S
N1577      H1581   1.046       .  S
C1582      C1583   1.420       .  A
C1582      C1587   1.391       .  A
C1582      H1589   1.077       .  S
C1583      C1584   1.428       .  A
C1584      C1585   1.404       .  A
C1584      N1591   1.430       .  S
C1585      C1586   1.396       .  A
C1585      H1590   1.084       .  S
C1586      C1587   1.408       .  A
C1587      N1588   1.434       .  S
N1588      H1592   1.044       .  S
N1588      H1593   1.046       .  S
N1591      H1594   1.045       .  S
N1591      H1595   1.046       .  S
C1596      C1597   1.419       .  A
C1596      C1601   1.414       .  A
C1596      H1603   1.077       .  S
C1597      C1598   1.432       .  A
C1598      C1599   1.405       .  A
C1598      N1605   1.430       .  S
C1599      C1600   1.398       .  A
C1599      H1604   1.084       .  S
C1600      C1601   1.408       .  A
C1601      N1602   1.432       .  S
N1602      H1606   1.046       .  S
N1602      H1607   1.046       .  S
N1605      H1608   1.046       .  S
N1605      H1609   1.046       .  S
C1610      C1611   1.406       .  A
C1610      C1615   1.415       .  A
C1610      H1617   1.083       .  S
C1611      C1612   1.408       .  A
C1612      C1613   1.407       .  A
C1612      N1619   1.433       .  S
C1613      C1614   1.422       .  A
C1613      H1618   1.079       .  S
C1614      C1615   1.425       .  A
C1615      N1616   1.429       .  S
N1616      H1620   1.045       .  S
N1616      H1621   1.046       .  S
N1619      H1622   1.046       .  S
N1619      H1623   1.046       .  S
C1624      C1625   1.394       .  A
C1624      C1629   1.400       .  A
C1624      H1631   1.085       .  S
C1625      C1626   1.404       .  A
C1626      C1627   1.396       .  A
C1626      N1633   1.432       .  S
C1627      C1628   1.414       .  A
C1627      H1632   1.074       .  S
C1628      C1629   1.445       .  A
C1629      N1630   1.444       .  S
N1630      H1634   1.046       .  S
N1630      H1635   1.034       .  S
N1633      H1636   1.045       .  S
N1633      H1637   1.045       .  S
C1638      C1639   1.397       .  A
C1638      C1643   1.405       .  A
C1638      H1645   1.084       .  S
C1639      C1640   1.401       .  A
C1640      C1641   1.398       .  A
C1640      N1647   1.434       .  S
C1641      C1642   1.418       .  A
C1641      H1646   1.079       .  S
C1642      C1643   1.424       .  A
C1643      N1644   1.431       .  S
N1644      H1648   1.045       .  S
N1644      H1649   1.045       .  S
N1647      H1650   1.045       .  S
N1647      H1651   1.047       .  S
C1652      C1653   1.414       .  A
C1652      C1657   1.406       .  A
C1652      H1659   1.065       .  S
C1653      C1654   1.442       .  A
C1654      C1655   1.401       .  A
C1654      N1661   1.432       .  S
C1655      C1656   1.392       .  A
C1655      H1660   1.084       .  S
C1656      C1657   1.400       .  A
C1657      N1658   1.432       .  S
N1658      H1662   1.046       .  S
N1658      H1663   1.046       .  S
N1661      H1664   1.046       .  S
N1661      H1665   1.046       .  S
N1666      N1667   1.319       .  A
N1666      N1672   1.317       .  A
N1667      C1674   1.354       .  A
N1668      N1670   1.315       .  A
N1668      N1669   1.318       .  A
N1669      C1675   1.352       .  A
N1670      N1671   1.318       .  A
N1670     Mn2361   2.184       .  S
N1671      C1675   1.351       .  A
N1672      N1673   1.325       .  A
N1673      C1674   1.357       .  A
C1674      C1989   1.494       .  S
C1675      C1905   1.473       .  S
N1676      N1682   1.313       .  A
N1676      N1677   1.320       .  A
N1677      C1685   1.354       .  A
N1678      N1679   1.327       .  A
N1678      N1680   1.315       .  A
N1678     Mn1684   2.218       .  S
N1679      C1686   1.358       .  A
N1680      N1681   1.324       .  A
N1680     Mn1706   2.231   1_655  S
N1681      C1686   1.357       .  A
N1682      N1683   1.313       .  A
N1683      C1685   1.349       .  A
C1685      C1972   1.473       .  S
C1686      C1944   1.504       .  S
N1687      N1688   1.324       .  A
N1687      N1693   1.315       .  A
N1687     Mn1695   2.209       .  S
N1688      C1696   1.355       .  A
N1689      N1691   1.315       .  A
N1689      N1690   1.315       .  A
N1690      C1697   1.352       .  A
N1691      N1692   1.322       .  A
N1692      C1697   1.353       .  A
N1693      N1694   1.318       .  A
N1693     Mn1707   2.205       .  S
N1694      C1696   1.354       .  A
Mn1695     N2336   2.196   1_545  S
Mn1695    Cl1708   2.554       .  S
C1696      C1933   1.483       .  S
C1697      C1919   1.483       .  S
N1698      N1699   1.316       .  A
N1698      N1704   1.314       .  A
N1698     Mn2372   2.177   1_655  S
N1699      C1709   1.349       .  A
N1700      N1701   1.320       .  A
N1700      N1702   1.318       .  A
N1701      C1710   1.353       .  A
N1702      N1703   1.327       .  A
N1703      C1710   1.359       .  A
N1704      N1705   1.321       .  A
N1705      C1709   1.358       .  A
Mn1706     N2364   2.163   1_455  S
Mn1707    Cl1708   2.536       .  S
C1709      C1958   1.484       .  S
C1710      C1888   1.501       .  S
C1711      C1846   1.593       .  S
C1711      C1860   1.600       .  S
C1711      C1874   1.594       .  S
C1711      C1891   1.576       .  S
C1712      C1818   1.598       .  S
C1712      C1832   1.593       .  S
C1712      C1877   1.600       .  S
C1712      C1975   1.554       .  S
C1713      C1790   1.587       .  S
C1713      C1804   1.573       .  S
C1713      C1821   1.594       .  S
C1713      C1902   1.565       .  S
C1714      C1779   1.596       .  S
C1714      C1793   1.596       .  S
C1714      C1849   1.587       .  S
C1714      C1930   1.567       .  S
C1715      C1748   1.596       .  S
C1715      C1762   1.583       .  S
C1715      C1863   1.597       .  S
C1715      C1961   1.548       .  S
C1716      C1734   1.581       .  S
C1716      C1751   1.586       .  S
C1716      C1776   1.607       .  S
C1716      C1916   1.564       .  S
C1717      C1723   1.608       .  S
C1717      C1737   1.597       .  S
C1717      C1807   1.572       .  S
C1717      C1986   1.579       .  S
C1718      C1720   1.609       .  S
C1718      C1765   1.605       .  S
C1718      C1835   1.593       .  S
C1718      C1947   1.576       .  S
C1719      C1720   1.424       .  A
C1719      C1724   1.420       .  A
C1719      H1726   1.083       .  S
C1720      C1721   1.422       .  A
C1721      C1722   1.403       .  A
C1721      N1728   1.422       .  S
C1722      C1723   1.409       .  A
C1722      H1727   1.058       .  S
C1723      C1724   1.430       .  A
C1724      N1725   1.434       .  S
N1725      H1729   1.045       .  S
N1725      H1730   1.041       .  S
N1728      H1731   1.046       .  S
N1728      H1732   1.047       .  S
C1733      C1734   1.400       .  A
C1733      C1738   1.388       .  A
C1733      H1740   1.067       .  S
C1734      C1735   1.436       .  A
C1735      C1736   1.420       .  A
C1735      N1742   1.431       .  S
C1736      C1737   1.401       .  A
C1736      H1741   1.084       .  S
C1737      C1738   1.425       .  A
C1738      N1739   1.431       .  S
N1739      H1743   1.040       .  S
N1739      H1744   1.046       .  S
N1742      H1745   1.046       .  S
N1742      H1746   1.046       .  S
C1747      C1748   1.424       .  A
C1747      C1752   1.439       .  A
C1747      H1754   1.080       .  S
C1748      C1749   1.409       .  A
C1749      C1750   1.390       .  A
C1749      N1756   1.410       .  S
C1750      C1751   1.399       .  A
C1750      H1755   1.085       .  S
C1751      C1752   1.430       .  A
C1752      N1753   1.429       .  S
N1753      H1757   1.045       .  S
N1753      H1758   1.045       .  S
N1756      H1759   1.041       .  S
N1756      H1760   1.026       .  S
C1761      C1762   1.429       .  A
C1761      C1766   1.431       .  A
C1761      H1768   1.083       .  S
C1762      C1763   1.413       .  A
C1763      C1764   1.390       .  A
C1763      N1770   1.412       .  S
C1764      C1765   1.409       .  A
C1764      H1769   1.078       .  S
C1765      C1766   1.411       .  A
C1766      N1767   1.437       .  S
N1767      H1771   1.045       .  S
N1767      H1772   1.045       .  S
N1770      H1773   1.044       .  S
N1770      H1774   1.043       .  S
C1775      C1776   1.410       .  A
C1775      C1780   1.404       .  A
C1775      H1782   1.075       .  S
C1776      C1777   1.441       .  A
C1777      C1778   1.426       .  A
C1777      N1784   1.436       .  S
C1778      C1779   1.413       .  A
C1778      H1783   1.081       .  S
C1779      C1780   1.419       .  A
C1780      N1781   1.431       .  S
N1781      H1785   1.035       .  S
N1781      H1786   1.046       .  S
N1784      H1787   1.035       .  S
N1784      H1788   1.045       .  S
C1789      C1790   1.407       .  A
C1789      C1794   1.404       .  A
C1789      H1796   1.067       .  S
C1790      C1791   1.432       .  A
C1791      C1792   1.414       .  A
C1791      N1798   1.440       .  S
C1792      C1793   1.414       .  A
C1792      H1797   1.066       .  S
C1793      C1794   1.429       .  A
C1794      N1795   1.432       .  S
N1795      H1799   1.045       .  S
N1795      H1800   1.043       .  S
N1798      H1801   1.043       .  S
N1798      H1802   1.045       .  S
C1803      C1804   1.424       .  A
C1803      C1808   1.430       .  A
C1803      H1810   1.079       .  S
C1804      C1805   1.426       .  A
C1805      C1806   1.375       .  A
C1805      N1812   1.432       .  S
C1806      C1807   1.405       .  A
C1806      H1811   1.081       .  S
C1807      C1808   1.421       .  A
C1808      N1809   1.428       .  S
N1809      H1813   1.045       .  S
N1809      H1814   1.045       .  S
N1812      H1815   1.037       .  S
N1812      H1816   1.040       .  S
C1817      C1818   1.408       .  A
C1817      C1822   1.384       .  A
C1817      H1824   1.082       .  S
C1818      C1819   1.422       .  A
C1819      C1820   1.434       .  A
C1819      N1826   1.436       .  S
C1820      C1821   1.421       .  A
C1820      H1825   1.082       .  S
C1821      C1822   1.431       .  A
C1822      N1823   1.431       .  S
N1823      H1827   1.044       .  S
N1823      H1828   1.046       .  S
N1826      H1829   1.045       .  S
N1826      H1830   1.045       .  S
C1831      C1832   1.400       .  A
C1831      C1836   1.392       .  A
C1831      H1838   1.079       .  S
C1832      C1833   1.431       .  A
C1833      C1834   1.434       .  A
C1833      N1840   1.429       .  S
C1834      C1835   1.420       .  A
C1834      H1839   1.080       .  S
C1835      C1836   1.424       .  A
C1836      N1837   1.430       .  S
N1837      H1841   1.030       .  S
N1837      H1842   1.041       .  S
N1840      H1843   1.045       .  S
N1840      H1844   1.045       .  S
C1845      C1846   1.421       .  A
C1845      C1850   1.432       .  A
C1845      H1852   1.080       .  S
C1846      C1847   1.420       .  A
C1847      C1848   1.386       .  A
C1847      N1854   1.430       .  S
C1848      C1849   1.403       .  A
C1848      H1853   1.080       .  S
C1849      C1850   1.431       .  A
C1850      N1851   1.428       .  S
N1851      H1855   1.045       .  S
N1851      H1856   1.045       .  S
N1854      H1857   1.046       .  S
N1854      H1858   1.030       .  S
C1859      C1860   1.416       .  A
C1859      C1864   1.403       .  A
C1859      H1866   1.073       .  S
C1860      C1861   1.428       .  A
C1861      C1862   1.437       .  A
C1861      N1868   1.433       .  S
C1862      C1863   1.424       .  A
C1862      H1867   1.081       .  S
C1863      C1864   1.407       .  A
C1864      N1865   1.427       .  S
N1865      H1869   1.036       .  S
N1865      H1870   1.045       .  S
N1868      H1871   1.045       .  S
N1868      H1872   1.045       .  S
C1873      C1874   1.407       .  A
C1873      C1878   1.413       .  A
C1873      H1880   1.061       .  S
C1874      C1875   1.423       .  A
C1875      C1876   1.419       .  A
C1875      N1882   1.432       .  S
C1876      C1877   1.419       .  A
C1876      H1881   1.062       .  S
C1877      C1878   1.423       .  A
C1878      N1879   1.435       .  S
N1879      H1883   1.046       .  S
N1879      H1884   1.040       .  S
N1882      H1885   1.042       .  S
N1882      H1886   1.045       .  S
C1887      C1888   1.403       .  A
C1887      C1892   1.415       .  A
C1887      H1894   1.084       .  S
C1888      C1889   1.416       .  A
C1889      C1890   1.402       .  A
C1889      N1896   1.433       .  S
C1890      C1891   1.418       .  A
C1890      H1895   1.079       .  S
C1891      C1892   1.428       .  A
C1892      N1893   1.430       .  S
N1893      H1897   1.046       .  S
N1893      H1898   1.046       .  S
N1896      H1899   1.044       .  S
N1896      H1900   1.046       .  S
C1901      C1902   1.423       .  A
C1901      C1906   1.390       .  A
C1901      H1908   1.079       .  S
C1902      C1903   1.424       .  A
C1903      C1904   1.405       .  A
C1903      N1910   1.427       .  S
C1904      C1905   1.398       .  A
C1904      H1909   1.084       .  S
C1905      C1906   1.405       .  A
C1906      N1907   1.434       .  S
N1907      H1911   1.045       .  S
N1907      H1912   1.045       .  S
N1910      H1913   1.046       .  S
N1910      H1914   1.046       .  S
C1915      C1916   1.419       .  A
C1915      C1920   1.384       .  A
C1915      H1922   1.077       .  S
C1916      C1917   1.422       .  A
C1917      C1918   1.412       .  A
C1917      N1924   1.430       .  S
C1918      C1919   1.406       .  A
C1918      H1923   1.084       .  S
C1919      C1920   1.409       .  A
C1920      N1921   1.434       .  S
N1921      H1925   1.045       .  S
N1921      H1926   1.045       .  S
N1924      H1927   1.045       .  S
N1924      H1928   1.046       .  S
C1929      C1930   1.418       .  A
C1929      C1934   1.409       .  A
C1929      H1936   1.077       .  S
C1930      C1931   1.436       .  A
C1931      C1932   1.399       .  A
C1931      N1938   1.431       .  S
C1932      C1933   1.393       .  A
C1932      H1937   1.084       .  S
C1933      C1934   1.404       .  A
C1934      N1935   1.432       .  S
N1935      H1939   1.046       .  S
N1935      H1940   1.046       .  S
N1938      H1941   1.046       .  S
N1938      H1942   1.046       .  S
C1943      C1944   1.405       .  A
C1943      C1948   1.417       .  A
C1943      H1950   1.084       .  S
C1944      C1945   1.408       .  A
C1945      C1946   1.407       .  A
C1945      N1952   1.433       .  S
C1946      C1947   1.420       .  A
C1946      H1951   1.077       .  S
C1947      C1948   1.427       .  A
C1948      N1949   1.431       .  S
N1949      H1953   1.045       .  S
N1949      H1954   1.046       .  S
N1952      H1955   1.046       .  S
N1952      H1956   1.046       .  S
C1957      C1958   1.398       .  A
C1957      C1962   1.398       .  A
C1957      H1964   1.084       .  S
C1958      C1959   1.418       .  A
C1959      C1960   1.398       .  A
C1959      N1966   1.432       .  S
C1960      C1961   1.408       .  A
C1960      H1965   1.080       .  S
C1961      C1962   1.429       .  A
C1962      N1963   1.434       .  S
N1963      H1967   1.046       .  S
N1963      H1968   1.046       .  S
N1966      H1969   1.046       .  S
N1966      H1970   1.044       .  S
C1971      C1972   1.398       .  A
C1971      C1976   1.404       .  A
C1971      H1978   1.084       .  S
C1972      C1973   1.404       .  A
C1973      C1974   1.390       .  A
C1973      N1980   1.434       .  S
C1974      C1975   1.415       .  A
C1974      H1979   1.076       .  S
C1975      C1976   1.426       .  A
C1976      N1977   1.430       .  S
N1977      H1981   1.045       .  S
N1977      H1982   1.046       .  S
N1980      H1983   1.046       .  S
N1980      H1984   1.046       .  S
C1985      C1986   1.420       .  A
C1985      C1990   1.401       .  A
C1985      H1992   1.075       .  S
C1986      C1987   1.431       .  A
C1987      C1988   1.415       .  A
C1987      N1994   1.428       .  S
C1988      C1989   1.401       .  A
C1988      H1993   1.084       .  S
C1989      C1990   1.405       .  A
C1990      N1991   1.433       .  S
N1991      H1995   1.046       .  S
N1991      H1996   1.046       .  S
N1994      H1997   1.046       .  S
N1994      H1998   1.045       .  S
N1999      N2000   1.326       .  A
N1999      N2005   1.317       .  A
N2000      C2007   1.358       .  A
N2001      N2003   1.315       .  A
N2001      N2002   1.324       .  A
N2002      C2008   1.354       .  A
N2003      N2004   1.314       .  A
N2004      C2008   1.352       .  A
N2005      N2006   1.325       .  A
N2005     Mn2350   2.222   1_654  S
N2006      C2007   1.357       .  A
C2007      C2322   1.501       .  S
C2008      C2238   1.473       .  S
N2009      N2015   1.314       .  A
N2009      N2010   1.316       .  A
N2010      C2018   1.353       .  A
N2011      N2012   1.325       .  A
N2011      N2013   1.315       .  A
N2011     Mn2017   2.206   1_655  S
N2012      C2019   1.356       .  A
N2013      N2014   1.320       .  A
N2013     Mn2039   2.216   1_655  S
N2014      C2019   1.355       .  A
N2015      N2016   1.326       .  A
N2016      C2018   1.355       .  A
Mn2017     N2338   2.193   1_455  S
C2018      C2305   1.482       .  S
C2019      C2277   1.492       .  S
N2020      N2021   1.321       .  A
N2020      N2026   1.317       .  A
N2020     Mn2028   2.215       .  S
N2021      C2029   1.354       .  A
N2022      N2024   1.315       .  A
N2022      N2023   1.320       .  A
N2023      C2030   1.355       .  A
N2024      N2025   1.321       .  A
N2025      C2030   1.353       .  A
N2026      N2027   1.322       .  A
N2026     Mn2040   2.212       .  S
N2027      C2029   1.356       .  A
Mn2028    Cl2041   2.549   1_554  S
C2029      C2266   1.493       .  S
C2030      C2252   1.486       .  S
N2031      N2032   1.321       .  A
N2031      N2037   1.317       .  A
N2032      C2042   1.353       .  A
N2033      N2034   1.320       .  A
N2033      N2035   1.315       .  A
N2033     Mn2373   2.213       .  S
N2034      C2043   1.356       .  A
N2035      N2036   1.319       .  A
N2036      C2043   1.351       .  A
N2037      N2038   1.319       .  A
N2038      C2042   1.351       .  A
Mn2040     N2366   2.230   1_554  S
Mn2040    Cl2041   2.544   1_554  S
C2042      C2291   1.471       .  S
C2043      C2221   1.488       .  S
C2044      C2179   1.611       .  S
C2044      C2193   1.580       .  S
C2044      C2207   1.620       .  S
C2044      C2224   1.573       .  S
C2045      C2151   1.577       .  S
C2045      C2165   1.632       .  S
C2045      C2210   1.630       .  S
C2045      C2308   1.578       .  S
C2046      C2123   1.585       .  S
C2046      C2137   1.585       .  S
C2046      C2154   1.572       .  S
C2046      C2235   1.560       .  S
C2047      C2112   1.606       .  S
C2047      C2126   1.577       .  S
C2047      C2182   1.593       .  S
C2047      C2263   1.553       .  S
C2048      C2081   1.607       .  S
C2048      C2095   1.619       .  S
C2048      C2196   1.587       .  S
C2048      C2294   1.576       .  S
C2049      C2067   1.607       .  S
C2049      C2084   1.591       .  S
C2049      C2109   1.604       .  S
C2049      C2249   1.580       .  S
C2050      C2056   1.598       .  S
C2050      C2070   1.613       .  S
C2050      C2140   1.584       .  S
C2050      C2319   1.582       .  S
C2051      C2053   1.607       .  S
C2051      C2098   1.601       .  S
C2051      C2168   1.601       .  S
C2051      C2280   1.568       .  S
C2052      C2053   1.416       .  A
C2052      C2057   1.403       .  A
C2052      H2059   1.084       .  S
C2053      C2054   1.426       .  A
C2054      C2055   1.424       .  A
C2054      N2061   1.421       .  S
C2055      C2056   1.408       .  A
C2055      H2060   1.082       .  S
C2056      C2057   1.434       .  A
C2057      N2058   1.431       .  S
N2058      H2062   1.044       .  S
N2058      H2063   1.046       .  S
N2061      H2064   1.046       .  S
N2061      H2065   1.046       .  S
C2066      C2067   1.410       .  A
C2066      C2071   1.425       .  A
C2066      H2073   1.062       .  S
C2067      C2068   1.430       .  A
C2068      C2069   1.408       .  A
C2068      N2075   1.434       .  S
C2069      C2070   1.414       .  A
C2069      H2074   1.061       .  S
C2070      C2071   1.432       .  A
C2071      N2072   1.439       .  S
N2072      H2076   1.045       .  S
N2072      H2077   1.043       .  S
N2075      H2078   1.046       .  S
N2075      H2079   1.045       .  S
C2080      C2081   1.427       .  A
C2080      C2085   1.426       .  A
C2080      H2087   1.078       .  S
C2081      C2082   1.415       .  A
C2082      C2083   1.404       .  A
C2082      N2089   1.415       .  S
C2083      C2084   1.407       .  A
C2083      H2088   1.083       .  S
C2084      C2085   1.422       .  A
C2085      N2086   1.428       .  S
N2086      H2090   1.045       .  S
N2086      H2091   1.045       .  S
N2089      H2092   1.042       .  S
N2089      H2093   1.038       .  S
C2094      C2095   1.439       .  A
C2094      C2099   1.432       .  A
C2094      H2101   1.070       .  S
C2095      C2096   1.441       .  A
C2096      C2097   1.385       .  A
C2096      N2103   1.425       .  S
C2097      C2098   1.399       .  A
C2097      H2102   1.080       .  S
C2098      C2099   1.415       .  A
C2099      N2100   1.436       .  S
N2100      H2104   1.046       .  S
N2100      H2105   1.044       .  S
N2103      H2106   1.037       .  S
N2103      H2107   1.042       .  S
C2108      C2109   1.426       .  A
C2108      C2113   1.408       .  A
C2108      H2115   1.079       .  S
C2109      C2110   1.437       .  A
C2110      C2111   1.430       .  A
C2110      N2117   1.437       .  S
C2111      C2112   1.420       .  A
C2111      H2116   1.079       .  S
C2112      C2113   1.410       .  A
C2113      N2114   1.436       .  S
N2114      H2118   1.045       .  S
N2114      H2119   1.045       .  S
N2117      H2120   1.041       .  S
N2117      H2121   1.045       .  S
C2122      C2123   1.409       .  A
C2122      C2127   1.425       .  A
C2122      H2129   1.083       .  S
C2123      C2124   1.409       .  A
C2124      C2125   1.386       .  A
C2124      N2131   1.428       .  S
C2125      C2126   1.404       .  A
C2125      H2130   1.070       .  S
C2126      C2127   1.433       .  A
C2127      N2128   1.428       .  S
N2128      H2132   1.045       .  S
N2128      H2133   1.045       .  S
N2131      H2134   1.046       .  S
N2131      H2135   1.039       .  S
C2136      C2137   1.424       .  A
C2136      C2141   1.431       .  A
C2136      H2143   1.079       .  S
C2137      C2138   1.431       .  A
C2138      C2139   1.382       .  A
C2138      N2145   1.437       .  S
C2139      C2140   1.399       .  A
C2139      H2144   1.077       .  S
C2140      C2141   1.425       .  A
C2141      N2142   1.428       .  S
N2142      H2146   1.046       .  S
N2142      H2147   1.045       .  S
N2145      H2148   1.045       .  S
N2145      H2149   1.029       .  S
C2150      C2151   1.413       .  A
C2150      C2155   1.406       .  A
C2150      H2157   1.083       .  S
C2151      C2152   1.422       .  A
C2152      C2153   1.394       .  A
C2152      N2159   1.436       .  S
C2153      C2154   1.414       .  A
C2153      H2158   1.067       .  S
C2154      C2155   1.427       .  A
C2155      N2156   1.432       .  S
N2156      H2160   1.043       .  S
N2156      H2161   1.045       .  S
N2159      H2162   1.040       .  S
N2159      H2163   1.044       .  S
C2164      C2165   1.408       .  A
C2164      C2169   1.385       .  A
C2164      H2171   1.069       .  S
C2165      C2166   1.446       .  A
C2166      C2167   1.444       .  A
C2166      N2173   1.427       .  S
C2167      C2168   1.420       .  A
C2167      H2172   1.081       .  S
C2168      C2169   1.420       .  A
C2169      N2170   1.442       .  S
N2170      H2174   1.036       .  S
N2170      H2175   1.037       .  S
N2173      H2176   1.045       .  S
N2173      H2177   1.046       .  S
C2178      C2179   1.426       .  A
C2178      C2183   1.435       .  A
C2178      H2185   1.083       .  S
C2179      C2180   1.430       .  A
C2180      C2181   1.392       .  A
C2180      N2187   1.422       .  S
C2181      C2182   1.396       .  A
C2181      H2186   1.077       .  S
C2182      C2183   1.436       .  A
C2183      N2184   1.430       .  S
N2184      H2188   1.045       .  S
N2184      H2189   1.046       .  S
N2187      H2190   1.041       .  S
N2187      H2191   1.046       .  S
C2192      C2193   1.411       .  A
C2192      C2197   1.426       .  A
C2192      H2199   1.081       .  S
C2193      C2194   1.423       .  A
C2194      C2195   1.411       .  A
C2194      N2201   1.430       .  S
C2195      C2196   1.407       .  A
C2195      H2200   1.082       .  S
C2196      C2197   1.419       .  A
C2197      N2198   1.431       .  S
N2198      H2202   1.044       .  S
N2198      H2203   1.045       .  S
N2201      H2204   1.046       .  S
N2201      H2205   1.039       .  S
C2206      C2207   1.424       .  A
C2206      C2211   1.438       .  A
C2206      H2213   1.074       .  S
C2207      C2208   1.406       .  A
C2208      C2209   1.383       .  A
C2208      N2215   1.421       .  S
C2209      C2210   1.405       .  A
C2209      H2214   1.053       .  S
C2210      C2211   1.457       .  A
C2211      N2212   1.429       .  S
N2212      H2216   1.042       .  S
N2212      H2217   1.042       .  S
N2215      H2218   1.037       .  S
N2215      H2219   1.043       .  S
C2220      C2221   1.403       .  A
C2220      C2225   1.408       .  A
C2220      H2227   1.084       .  S
C2221      C2222   1.408       .  A
C2222      C2223   1.394       .  A
C2222      N2229   1.433       .  S
C2223      C2224   1.415       .  A
C2223      H2228   1.064       .  S
C2224      C2225   1.431       .  A
C2225      N2226   1.432       .  S
N2226      H2230   1.046       .  S
N2226      H2231   1.046       .  S
N2229      H2232   1.045       .  S
N2229      H2233   1.045       .  S
C2234      C2235   1.419       .  A
C2234      C2239   1.408       .  A
C2234      H2241   1.082       .  S
C2235      C2236   1.437       .  A
C2236      C2237   1.387       .  A
C2236      N2243   1.432       .  S
C2237      C2238   1.388       .  A
C2237      H2242   1.085       .  S
C2238      C2239   1.408       .  A
C2239      N2240   1.432       .  S
N2240      H2244   1.046       .  S
N2240      H2245   1.045       .  S
N2243      H2246   1.046       .  S
N2243      H2247   1.046       .  S
C2248      C2249   1.425       .  A
C2248      C2253   1.395       .  A
C2248      H2255   1.077       .  S
C2249      C2250   1.431       .  A
C2250      C2251   1.410       .  A
C2250      N2257   1.429       .  S
C2251      C2252   1.399       .  A
C2251      H2256   1.084       .  S
C2252      C2253   1.407       .  A
C2253      N2254   1.433       .  S
N2254      H2258   1.045       .  S
N2254      H2259   1.045       .  S
N2257      H2260   1.045       .  S
N2257      H2261   1.046       .  S
C2262      C2263   1.411       .  A
C2262      C2267   1.405       .  A
C2262      H2269   1.081       .  S
C2263      C2264   1.426       .  A
C2264      C2265   1.406       .  A
C2264      N2271   1.432       .  S
C2265      C2266   1.401       .  A
C2265      H2270   1.084       .  S
C2266      C2267   1.411       .  A
C2267      N2268   1.432       .  S
N2268      H2272   1.046       .  S
N2268      H2273   1.046       .  S
N2271      H2274   1.046       .  S
N2271      H2275   1.046       .  S
C2276      C2277   1.403       .  A
C2276      C2281   1.414       .  A
C2276      H2283   1.084       .  S
C2277      C2278   1.406       .  A
C2278      C2279   1.400       .  A
C2278      N2285   1.433       .  S
C2279      C2280   1.418       .  A
C2279      H2284   1.078       .  S
C2280      C2281   1.427       .  A
C2281      N2282   1.430       .  S
N2282      H2286   1.045       .  S
N2282      H2287   1.046       .  S
N2285      H2288   1.046       .  S
N2285      H2289   1.046       .  S
C2290      C2291   1.395       .  A
C2290      C2295   1.405       .  A
C2290      H2297   1.084       .  S
C2291      C2292   1.396       .  A
C2292      C2293   1.398       .  A
C2292      N2299   1.433       .  S
C2293      C2294   1.422       .  A
C2293      H2298   1.076       .  S
C2294      C2295   1.444       .  A
C2295      N2296   1.443       .  S
N2296      H2300   1.046       .  S
N2296      H2301   1.039       .  S
N2299      H2302   1.046       .  S
N2299      H2303   1.046       .  S
C2304      C2305   1.387       .  A
C2304      C2309   1.392       .  A
C2304      H2311   1.085       .  S
C2305      C2306   1.407       .  A
C2306      C2307   1.418       .  A
C2306      N2313   1.436       .  S
C2307      C2308   1.417       .  A
C2307      H2312   1.083       .  S
C2308      C2309   1.445       .  A
C2309      N2310   1.433       .  S
N2310      H2314   1.046       .  S
N2310      H2315   1.046       .  S
N2313      H2316   1.046       .  S
N2313      H2317   1.046       .  S
C2318      C2319   1.418       .  A
C2318      C2323   1.411       .  A
C2318      H2325   1.072       .  S
C2319      C2320   1.435       .  A
C2320      C2321   1.414       .  A
C2320      N2327   1.431       .  S
C2321      C2322   1.401       .  A
C2321      H2326   1.084       .  S
C2322      C2323   1.405       .  A
C2323      N2324   1.432       .  S
N2324      H2328   1.046       .  S
N2324      H2329   1.046       .  S
N2327      H2330   1.046       .  S
N2327      H2331   1.046       .  S
N2332      N2333   1.323       .  A
N2332      N2338   1.316       .  A
N2333      C2340   1.355       .  A
N2334      N2336   1.315       .  A
N2334      N2335   1.316       .  A
N2335      C2341   1.351       .  A
N2336      N2337   1.321       .  A
N2337      C2341   1.353       .  A
N2338      N2339   1.319       .  A
N2339      C2340   1.351       .  A
C2340      C2655   1.477       .  S
C2341      C2571   1.477       .  S
N2342      N2348   1.315       .  A
N2342      N2343   1.323       .  A
N2343      C2351   1.356       .  A
N2344      N2345   1.320       .  A
N2344      N2346   1.318       .  A
N2344     Mn2350   2.214   1_655  S
N2345      C2352   1.355       .  A
N2346      N2347   1.326       .  A
N2346     Mn2372   2.229   1_665  S
N2347      C2352   1.357       .  A
N2348      N2349   1.316       .  A
N2349      C2351   1.350       .  A
C2351      C2638   1.481       .  S
C2352      C2610   1.491       .  S
N2353      N2354   1.327       .  A
N2353      N2359   1.315       .  A
N2353     Mn2361   2.222       .  S
N2354      C2362   1.358       .  A
N2355      N2357   1.314       .  A
N2355      N2356   1.318       .  A
N2356      C2363   1.353       .  A
N2357      N2358   1.323       .  A
N2358      C2363   1.354       .  A
N2359      N2360   1.316       .  A
N2359     Mn2373   2.190       .  S
N2360      C2362   1.350       .  A
Mn2361    Cl2374   2.553       .  S
C2362      C2599   1.484       .  S
C2363      C2585   1.484       .  S
N2364      N2365   1.313       .  A
N2364      N2370   1.316       .  A
N2365      C2375   1.344       .  A
N2366      N2367   1.324       .  A
N2366      N2368   1.316       .  A
N2367      C2376   1.358       .  A
N2368      N2369   1.322       .  A
N2369      C2376   1.353       .  A
N2370      N2371   1.319       .  A
N2371      C2375   1.351       .  A
Mn2373    Cl2374   2.537       .  S
C2375      C2624   1.445       .  S
C2376      C2554   1.497       .  S
C2377      C2512   1.588       .  S
C2377      C2526   1.592       .  S
C2377      C2540   1.592       .  S
C2377      C2557   1.564       .  S
C2378      C2484   1.603       .  S
C2378      C2498   1.590       .  S
C2378      C2543   1.587       .  S
C2378      C2641   1.554       .  S
C2379      C2456   1.582       .  S
C2379      C2470   1.572       .  S
C2379      C2487   1.596       .  S
C2379      C2568   1.568       .  S
C2380      C2445   1.601       .  S
C2380      C2459   1.593       .  S
C2380      C2515   1.582       .  S
C2380      C2596   1.559       .  S
C2381      C2414   1.572       .  S
C2381      C2428   1.615       .  S
C2381      C2529   1.615       .  S
C2381      C2627   1.558       .  S
C2382      C2400   1.601       .  S
C2382      C2417   1.574       .  S
C2382      C2442   1.607       .  S
C2382      C2582   1.567       .  S
C2383      C2389   1.608       .  S
C2383      C2403   1.596       .  S
C2383      C2473   1.587       .  S
C2383      C2652   1.570       .  S
C2384      C2386   1.605       .  S
C2384      C2431   1.600       .  S
C2384      C2501   1.592       .  S
C2384      C2613   1.565       .  S
C2385      C2386   1.412       .  A
C2385      C2390   1.411       .  A
C2385      H2392   1.082       .  S
C2386      C2387   1.420       .  A
C2387      C2388   1.436       .  A
C2387      N2394   1.437       .  S
C2388      C2389   1.419       .  A
C2388      H2393   1.082       .  S
C2389      C2390   1.433       .  A
C2390      N2391   1.434       .  S
N2391      H2395   1.044       .  S
N2391      H2396   1.044       .  S
N2394      H2397   1.045       .  S
N2394      H2398   1.045       .  S
C2399      C2400   1.405       .  A
C2399      C2404   1.412       .  A
C2399      H2406   1.064       .  S
C2400      C2401   1.436       .  A
C2401      C2402   1.412       .  A
C2401      N2408   1.433       .  S
C2402      C2403   1.406       .  A
C2402      H2407   1.068       .  S
C2403      C2404   1.429       .  A
C2404      N2405   1.432       .  S
N2405      H2409   1.044       .  S
N2405      H2410   1.045       .  S
N2408      H2411   1.045       .  S
N2408      H2412   1.045       .  S
C2413      C2414   1.419       .  A
C2413      C2418   1.421       .  A
C2413      H2420   1.080       .  S
C2414      C2415   1.418       .  A
C2415      C2416   1.381       .  A
C2415      N2422   1.436       .  S
C2416      C2417   1.405       .  A
C2416      H2421   1.085       .  S
C2417      C2418   1.424       .  A
C2418      N2419   1.429       .  S
N2419      H2423   1.045       .  S
N2419      H2424   1.045       .  S
N2422      H2425   1.040       .  S
N2422      H2426   1.040       .  S
C2427      C2428   1.423       .  A
C2427      C2432   1.392       .  A
C2427      H2434   1.076       .  S
C2428      C2429   1.424       .  A
C2429      C2430   1.426       .  A
C2429      N2436   1.423       .  S
C2430      C2431   1.427       .  A
C2430      H2435   1.083       .  S
C2431      C2432   1.414       .  A
C2432      N2433   1.420       .  S
N2433      H2437   1.044       .  S
N2433      H2438   1.046       .  S
N2436      H2439   1.046       .  S
N2436      H2440   1.046       .  S
C2441      C2442   1.423       .  A
C2441      C2446   1.393       .  A
C2441      H2448   1.082       .  S
C2442      C2443   1.435       .  A
C2443      C2444   1.430       .  A
C2443      N2450   1.438       .  S
C2444      C2445   1.418       .  A
C2444      H2449   1.081       .  S
C2445      C2446   1.417       .  A
C2446      N2447   1.432       .  S
N2447      H2451   1.041       .  S
N2447      H2452   1.046       .  S
N2450      H2453   1.041       .  S
N2450      H2454   1.045       .  S
C2455      C2456   1.409       .  A
C2455      C2460   1.407       .  A
C2455      H2462   1.069       .  S
C2456      C2457   1.429       .  A
C2457      C2458   1.405       .  A
C2457      N2464   1.433       .  S
C2458      C2459   1.409       .  A
C2458      H2463   1.067       .  S
C2459      C2460   1.427       .  A
C2460      N2461   1.432       .  S
N2461      H2465   1.045       .  S
N2461      H2466   1.043       .  S
N2464      H2467   1.045       .  S
N2464      H2468   1.044       .  S
C2469      C2470   1.420       .  A
C2469      C2474   1.427       .  A
C2469      H2476   1.080       .  S
C2470      C2471   1.424       .  A
C2471      C2472   1.380       .  A
C2471      N2478   1.435       .  S
C2472      C2473   1.405       .  A
C2472      H2477   1.077       .  S
C2473      C2474   1.429       .  A
C2474      N2475   1.428       .  S
N2475      H2479   1.046       .  S
N2475      H2480   1.045       .  S
N2478      H2481   1.040       .  S
N2478      H2482   1.042       .  S
C2483      C2484   1.403       .  A
C2483      C2488   1.389       .  A
C2483      H2490   1.082       .  S
C2484      C2485   1.437       .  A
C2485      C2486   1.429       .  A
C2485      N2492   1.439       .  S
C2486      C2487   1.416       .  A
C2486      H2491   1.082       .  S
C2487      C2488   1.428       .  A
C2488      N2489   1.424       .  S
N2489      H2493   1.042       .  S
N2489      H2494   1.046       .  S
N2492      H2495   1.040       .  S
N2492      H2496   1.045       .  S
C2497      C2498   1.397       .  A
C2497      C2502   1.390       .  A
C2497      H2504   1.083       .  S
C2498      C2499   1.430       .  A
C2499      C2500   1.435       .  A
C2499      N2506   1.430       .  S
C2500      C2501   1.422       .  A
C2500      H2505   1.081       .  S
C2501      C2502   1.417       .  A
C2502      N2503   1.425       .  S
N2503      H2507   1.028       .  S
N2503      H2508   1.034       .  S
N2506      H2509   1.045       .  S
N2506      H2510   1.045       .  S
C2511      C2512   1.421       .  A
C2511      C2516   1.436       .  A
C2511      H2518   1.080       .  S
C2512      C2513   1.408       .  A
C2513      C2514   1.375       .  A
C2513      N2520   1.412       .  S
C2514      C2515   1.394       .  A
C2514      H2519   1.082       .  S
C2515      C2516   1.433       .  A
C2516      N2517   1.429       .  S
N2517      H2521   1.045       .  S
N2517      H2522   1.046       .  S
N2520      H2523   1.045       .  S
N2520      H2524   1.035       .  S
C2525      C2526   1.407       .  A
C2525      C2530   1.407       .  A
C2525      H2532   1.077       .  S
C2526      C2527   1.411       .  A
C2527      C2528   1.427       .  A
C2527      N2534   1.438       .  S
C2528      C2529   1.423       .  A
C2528      H2533   1.071       .  S
C2529      C2530   1.440       .  A
C2530      N2531   1.438       .  S
N2531      H2535   1.045       .  S
N2531      H2536   1.045       .  S
N2534      H2537   1.045       .  S
N2534      H2538   1.045       .  S
C2539      C2540   1.413       .  A
C2539      C2544   1.401       .  A
C2539      H2546   1.060       .  S
C2540      C2541   1.422       .  A
C2541      C2542   1.407       .  A
C2541      N2548   1.440       .  S
C2542      C2543   1.412       .  A
C2542      H2547   1.055       .  S
C2543      C2544   1.421       .  A
C2544      N2545   1.434       .  S
N2545      H2549   1.045       .  S
N2545      H2550   1.046       .  S
N2548      H2551   1.045       .  S
N2548      H2552   1.044       .  S
C2553      C2554   1.406       .  A
C2553      C2558   1.412       .  A
C2553      H2560   1.084       .  S
C2554      C2555   1.413       .  A
C2555      C2556   1.400       .  A
C2555      N2562   1.433       .  S
C2556      C2557   1.420       .  A
C2556      H2561   1.079       .  S
C2557      C2558   1.420       .  A
C2558      N2559   1.431       .  S
N2559      H2563   1.046       .  S
N2559      H2564   1.046       .  S
N2562      H2565   1.044       .  S
N2562      H2566   1.046       .  S
C2567      C2568   1.422       .  A
C2567      C2572   1.388       .  A
C2567      H2574   1.078       .  S
C2568      C2569   1.424       .  A
C2569      C2570   1.408       .  A
C2569      N2576   1.427       .  S
C2570      C2571   1.400       .  A
C2570      H2575   1.084       .  S
C2571      C2572   1.407       .  A
C2572      N2573   1.434       .  S
N2573      H2577   1.045       .  S
N2573      H2578   1.046       .  S
N2576      H2579   1.046       .  S
N2576      H2580   1.046       .  S
C2581      C2582   1.419       .  A
C2581      C2586   1.394       .  A
C2581      H2588   1.078       .  S
C2582      C2583   1.427       .  A
C2583      C2584   1.410       .  A
C2583      N2590   1.430       .  S
C2584      C2585   1.401       .  A
C2584      H2589   1.084       .  S
C2585      C2586   1.410       .  A
C2586      N2587   1.433       .  S
N2587      H2591   1.045       .  S
N2587      H2592   1.045       .  S
N2590      H2593   1.045       .  S
N2590      H2594   1.046       .  S
C2595      C2596   1.419       .  A
C2595      C2600   1.409       .  A
C2595      H2602   1.078       .  S
C2596      C2597   1.429       .  A
C2597      C2598   1.399       .  A
C2597      N2604   1.431       .  S
C2598      C2599   1.397       .  A
C2598      H2603   1.084       .  S
C2599      C2600   1.403       .  A
C2600      N2601   1.432       .  S
N2601      H2605   1.046       .  S
N2601      H2606   1.046       .  S
N2604      H2607   1.046       .  S
N2604      H2608   1.046       .  S
C2609      C2610   1.396       .  A
C2609      C2614   1.403       .  A
C2609      H2616   1.084       .  S
C2610      C2611   1.407       .  A
C2611      C2612   1.414       .  A
C2611      N2618   1.432       .  S
C2612      C2613   1.418       .  A
C2612      H2617   1.082       .  S
C2613      C2614   1.432       .  A
C2614      N2615   1.431       .  S
N2615      H2619   1.046       .  S
N2615      H2620   1.046       .  S
N2618      H2621   1.046       .  S
N2618      H2622   1.046       .  S
C2623      C2624   1.387       .  A
C2623      C2628   1.394       .  A
C2623      H2630   1.085       .  S
C2624      C2625   1.390       .  A
C2625      C2626   1.394       .  A
C2625      N2632   1.433       .  S
C2626      C2627   1.422       .  A
C2626      H2631   1.076       .  S
C2627      C2628   1.431       .  A
C2628      N2629   1.427       .  S
N2629      H2633   1.046       .  S
N2629      H2634   1.046       .  S
N2632      H2635   1.045       .  S
N2632      H2636   1.046       .  S
C2637      C2638   1.400       .  A
C2637      C2642   1.406       .  A
C2637      H2644   1.084       .  S
C2638      C2639   1.407       .  A
C2639      C2640   1.396       .  A
C2639      N2646   1.434       .  S
C2640      C2641   1.416       .  A
C2640      H2645   1.078       .  S
C2641      C2642   1.423       .  A
C2642      N2643   1.431       .  S
N2643      H2647   1.045       .  S
N2643      H2648   1.046       .  S
N2646      H2649   1.046       .  S
N2646      H2650   1.046       .  S
C2651      C2652   1.413       .  A
C2651      C2656   1.404       .  A
C2651      H2658   1.067       .  S
C2652      C2653   1.438       .  A
C2653      C2654   1.403       .  A
C2653      N2660   1.431       .  S
C2654      C2655   1.394       .  A
C2654      H2659   1.085       .  S
C2655      C2656   1.398       .  A
C2656      N2657   1.432       .  S
N2657      H2661   1.046       .  S
N2657      H2662   1.046       .  S
N2660      H2663   1.046       .  S
N2660      H2664   1.046       .  S
