geometry optimzed in LAMMPS
_audit_creation_date              2020-11-30 
_audit_creation_method            'lammps2cif' 
_symmetry_space_group_name_H-M    'P1' 
_symmetry_Int_Tables_number       1 
_symmetry_cell_setting            triclinic 
loop_ 
_symmetry_equiv_pos_as_xyz 
  x,y,z 
_cell_length_a                    42.20632208643656 
_cell_length_b                    42.105920322424716 
_cell_length_c                    42.07674660720298 
_cell_angle_alpha                 89.98869795565042 
_cell_angle_beta                  90.20169425661027 
_cell_angle_gamma                 90.15971296770432 
loop_ 
_atom_site_label 
_atom_site_type_symbol 
_atom_site_fract_x 
_atom_site_fract_y 
_atom_site_fract_z 
_atom_site_charge 
O1          O  0.56350999  0.35981867  0.48525268    -0.75030
O2          O  0.58657357  0.32644887  0.52005467    -0.53940
C3          C  0.58762319  0.34985023  0.50064412     0.78700
O4          O  0.41326103  0.31727312  0.49308105    -0.59630
O5          O  0.41436690  0.31487531  0.44047643    -0.52660
C6          C  0.40361533  0.32689330  0.46610187     0.70710
O7          O  0.48581938  0.34867274  0.56452895    -0.74190
O8          O  0.53514244  0.32866007  0.57338386    -0.54750
C9          C  0.51093884  0.34527968  0.58142487     0.76720
O10         O  0.50461651  0.33395072  0.39896121    -0.59330
O11         O  0.45867219  0.30578491  0.39355128    -0.52450
C12         C  0.48015720  0.32480310  0.38335923     0.73310
Zr13       Zr  0.53021003  0.32992373  0.44970003     2.54710
O14         O  0.52964002  0.38479096  0.43142035    -0.79900
O15         O  0.57702727  0.32367391  0.41649339    -0.93320
Zr16       Zr  0.46421232  0.33339861  0.51368876     2.64680
O17         O  0.46440846  0.38954543  0.49908422    -0.98270
O18         O  0.42258275  0.35437314  0.54759633    -0.80330
O19         O  0.51911095  0.33599787  0.50437625    -0.83690
O20         O  0.47528623  0.32886875  0.45884494    -2.18400
O21         O  0.52224325  0.24060780  0.40156788    -0.67080
O22         O  0.46886104  0.24378722  0.39769393    -0.51640
C23         C  0.49638761  0.24200204  0.38485843     0.71690
O24         O  0.48927716  0.24536389  0.58152602    -0.59990
O25         O  0.53939153  0.26544897  0.58127368    -0.51960
C26         C  0.51433637  0.25630258  0.59593849     0.73490
O27         O  0.41325946  0.24503491  0.50948901    -0.71380
O28         O  0.40987592  0.24700928  0.45578433    -0.50060
C29         C  0.39690519  0.24631651  0.48337344     0.74880
O30         O  0.59268322  0.24083240  0.47876395    -0.66710
O31         O  0.59396843  0.26535679  0.52703376    -0.53910
C32         C  0.60780731  0.25241719  0.50306867     0.73260
Zr33       Zr  0.53704122  0.23623979  0.45895237     2.77540
O34         O  0.53203079  0.17913181  0.46719907    -0.97460
O35         O  0.57406292  0.20791959  0.42503584    -0.78280
Zr36       Zr  0.46983107  0.23902135  0.52536006     2.70070
O37         O  0.47605882  0.18203428  0.51817699    -0.79530
O38         O  0.43661317  0.21226003  0.56441970    -0.98610
Zr39       Zr  0.54268644  0.29135725  0.53029285     2.21500
Zr40       Zr  0.45730701  0.27691812  0.44316455     2.11130
O41         O  0.48118475  0.23220110  0.46975999    -2.47300
O42         O  0.52555139  0.23942294  0.51472001    -0.79320
O43         O  0.51251058  0.27962984  0.43342197    -0.71520
O44         O  0.48722793  0.29029685  0.54104439    -2.32470
O45         O  0.55520896  0.28727692  0.47514319    -2.28680
O46         O  0.44654443  0.28244121  0.49838956    -0.73280
H47         H  0.46509245  0.34539884  0.44669227     0.78720
H48         H  0.48134154  0.29410039  0.56272939     0.79810
H49         H  0.47214705  0.21271350  0.46166776     0.82030
H50         H  0.57712188  0.29157829  0.47052438     0.79640
H51         H  0.41587294  0.33602278  0.56069086     0.42680
H52         H  0.42280683  0.22916296  0.57301737     0.41650
H53         H  0.48917691  0.17526401  0.53650753     0.41320
H54         H  0.53215058  0.17630133  0.49054395     0.39260
H55         H  0.58629822  0.22483021  0.41420024     0.42390
H56         H  0.59535802  0.32789620  0.43061267     0.37170
H57         H  0.52019865  0.39686771  0.44919163     0.43290
H58         H  0.46607650  0.39066177  0.47569678     0.39710
H59         H  0.51035825  0.17327671  0.46031368     0.44620
H60         H  0.57645422  0.34205211  0.40182265     0.43350
H61         H  0.44280707  0.39720335  0.50388439     0.43480
H62         H  0.42216414  0.19850127  0.55190921     0.43840
O63         O  0.57718100  0.51421991  0.32327642    -0.75030
O64         O  0.58474439  0.46709678  0.29757619    -0.53940
C65         C  0.59016084  0.48685594  0.32010017     0.78700
O66         O  0.42827960  0.53085256  0.30593092    -0.59630
O67         O  0.42590747  0.57340254  0.27244287    -0.52660
C68         C  0.41703956  0.55778490  0.29686987     0.70710
O69         O  0.49815056  0.45055116  0.32074850    -0.74190
O70         O  0.52967550  0.42498741  0.28613142    -0.54750
C71         C  0.50941310  0.42505234  0.30877327     0.76720
O72         O  0.52173832  0.60263392  0.29937878    -0.59330
O73         O  0.47632669  0.61078238  0.27093240    -0.52450
C74         C  0.49824593  0.61965134  0.29027051     0.73310
Zr75       Zr  0.54093997  0.54908403  0.29549247     2.54710
O76         O  0.53223370  0.55904785  0.35176459    -0.79900
O77         O  0.58930987  0.58082986  0.29648622    -0.93320
Zr78       Zr  0.46825732  0.49120445  0.29354811     2.64680
O79         O  0.45145205  0.48457273  0.34852500    -0.98270
O80         O  0.42501539  0.45419378  0.28294427    -0.80330
O81         O  0.52389761  0.49597337  0.29864785    -0.83690
O82         O  0.48575611  0.54444435  0.29133390    -2.18400
O83         O  0.53880785  0.60084060  0.20802403    -0.67080
O84         O  0.48581719  0.60668455  0.20594775    -0.51640
C85         C  0.51375246  0.61861903  0.20762873     0.71690
O86         O  0.49217593  0.42384280  0.20493223    -0.59990
O87         O  0.54249933  0.42136148  0.22391491    -0.51960
C88         C  0.51672458  0.40796352  0.21467608     0.73490
O89         O  0.42131437  0.50024418  0.20582858    -0.71380
O90         O  0.42092966  0.55381833  0.21120493    -0.50060
C91         C  0.40639462  0.52700867  0.20846247     0.74880
O92         O  0.60308332  0.51903373  0.20702913    -0.66710
O93         O  0.60122048  0.47162594  0.23314064    -0.53910
C94         C  0.61660531  0.49446755  0.21966326     0.73260
Zr95       Zr  0.54953684  0.54273304  0.20160105     2.77540
O96         O  0.54568516  0.53675177  0.14408165    -0.97460
O97         O  0.58955052  0.57445445  0.17461089    -0.78280
Zr98       Zr  0.47686652  0.48127480  0.19980642     2.70070
O99         O  0.48426888  0.48984691  0.14311046    -0.79530
O100        O  0.44179864  0.44527425  0.17090267    -0.98610
Zr101      Zr  0.54744973  0.46948536  0.25445141     2.21500
Zr102      Zr  0.47067383  0.56281347  0.23955218     2.11130
O103        O  0.49328429  0.53590403  0.19472197    -2.47300
O104        O  0.53330604  0.48799886  0.20257910    -0.79320
O105        O  0.52630818  0.56878278  0.24518021    -0.71520
O106        O  0.49110070  0.46292530  0.25105318    -2.32470
O107        O  0.56490409  0.52332477  0.25272830    -2.28680
O108        O  0.45409986  0.50908198  0.24290983    -0.73280
H109        H  0.47747414  0.55731109  0.30835061     0.78720
H110        H  0.48367588  0.44160071  0.25468821     0.79810
H111        H  0.48558882  0.54525711  0.17522682     0.82030
H112        H  0.58686995  0.52611175  0.25837011     0.79640
H113        H  0.43465112  0.43284154  0.28444669     0.42680
H114        H  0.42745138  0.43650249  0.18730490     0.41650
H115        H  0.49618510  0.47096805  0.13589093     0.41320
H116        H  0.54203728  0.51380426  0.14053077     0.39260
H117        H  0.60073974  0.58593735  0.19187158     0.42390
H118        H  0.60680043  0.56532771  0.29846592     0.37170
H119        H  0.51806226  0.54158268  0.35862868     0.43290
H120        H  0.45515405  0.50552278  0.35858766     0.39710
H121        H  0.52570441  0.54719302  0.13762365     0.44620
H122        H  0.58884891  0.59176714  0.31730862     0.43350
H123        H  0.42810757  0.48234408  0.34752249     0.43480
H124        H  0.42810625  0.45912980  0.15774208     0.43840
O125        O  0.53244313  0.70203895  0.40220345    -0.75030
O126        O  0.48637343  0.72942854  0.39446525    -0.53940
C127        C  0.50736280  0.70924740  0.38613560     0.78700
O128        O  0.51491233  0.71524995  0.56936988    -0.59630
O129        O  0.56352869  0.73869551  0.57333431    -0.52660
C130        C  0.54050554  0.72233297  0.58452797     0.70710
O131        O  0.45006602  0.69852253  0.48276858    -0.74190
O132        O  0.44029783  0.72864668  0.43864965    -0.54750
C133        C  0.43475986  0.70529200  0.45710815     0.76720
O134        O  0.60924156  0.70974418  0.47886460    -0.59330
O135        O  0.61188995  0.73509341  0.52675603    -0.52450
C136        C  0.62304677  0.71678702  0.50526695     0.73310
Zr137      Zr  0.55868575  0.71688777  0.45212237     2.54710
O138        O  0.55502888  0.65980077  0.46059944    -0.79900
O139        O  0.60013450  0.70913417  0.41277120    -0.93320
Zr140      Zr  0.49250240  0.71932373  0.51629898     2.64680
O141        O  0.49865997  0.66214082  0.52244354    -0.98270
O142        O  0.44704107  0.71741901  0.55181684    -0.80330
O143        O  0.50381718  0.71738186  0.46152508    -0.83690
O144        O  0.54750000  0.71905263  0.50704442    -2.18400
O145        O  0.61494705  0.80164788  0.46308013    -0.67080
O146        O  0.61507954  0.79865817  0.51663031    -0.51640
C147        C  0.62977032  0.79865243  0.48999430     0.71690
O148        O  0.43393372  0.81205179  0.49376451    -0.59990
O149        O  0.43233351  0.79140938  0.44381724    -0.51960
C150        C  0.41861646  0.80190710  0.46896506     0.73490
O151        O  0.50452036  0.80686431  0.56940866    -0.71380
O152        O  0.55768032  0.80121949  0.57226642    -0.50060
C153        C  0.53051741  0.80390496  0.58560705     0.74880
O154        O  0.54107510  0.80820273  0.38933633    -0.66710
O155        O  0.48905382  0.79496769  0.39005928    -0.53910
C156        C  0.51500535  0.79989515  0.37506585     0.73260
Zr157      Zr  0.55896202  0.81201490  0.44610167     2.77540
O158        O  0.55411229  0.86877525  0.45600630    -0.97460
O159        O  0.59533254  0.83905829  0.41025379    -0.78280
Zr160      Zr  0.49008165  0.81447230  0.51236190     2.70070
O161        O  0.50227254  0.87049380  0.50467831    -0.79530
O162        O  0.45449099  0.84615803  0.54494081    -0.98610
Zr163      Zr  0.48325016  0.76500597  0.43862590     2.21500
Zr164      Zr  0.56665044  0.76935427  0.52535397     2.11130
O165        O  0.54604876  0.81666321  0.50163432    -2.47300
O166        O  0.50296037  0.81473409  0.45676054    -0.79320
O167        O  0.57908267  0.76571763  0.47059115    -0.71520
O168        O  0.47015401  0.76492720  0.49349277    -2.32470
O169        O  0.53851960  0.76270117  0.42765376    -2.28680
O170        O  0.51160872  0.76828539  0.53571281    -0.73280
H171        H  0.55741924  0.70164396  0.51820113     0.78720
H172        H  0.44813276  0.76061530  0.49756355     0.79810
H173        H  0.55577975  0.83520587  0.51108113     0.82030
H174        H  0.54365173  0.75824015  0.40586798     0.79640
H175        H  0.42868999  0.72396722  0.53866786     0.42680
H176        H  0.44364888  0.83056709  0.55880803     0.41650
H177        H  0.48784347  0.87729760  0.48738056     0.41320
H178        H  0.57598421  0.87608541  0.46053744     0.39260
H179        H  0.60642972  0.82172705  0.39897093     0.42390
H180        H  0.59505888  0.72431114  0.39552374     0.37170
H181        H  0.53213413  0.65494664  0.45866790     0.43290
H182        H  0.51853565  0.65943527  0.53469847     0.39710
H183        H  0.54884510  0.87810334  0.43504688     0.44620
H184        H  0.59579038  0.68793854  0.40351878     0.43350
H185        H  0.48170709  0.65592515  0.53743497     0.43480
H186        H  0.46845476  0.85832105  0.55949478     0.43840
O187        O  0.69000711  0.44544914  0.51327600    -0.75030
O188        O  0.71280118  0.43334964  0.46552373    -0.53940
C189        C  0.69399606  0.42783419  0.48876447     0.78700
O190        O  0.70400295  0.60745968  0.48680025    -0.59630
O191        O  0.73338621  0.61382591  0.53207235    -0.52660
C192        C  0.71362920  0.62344339  0.51103278     0.70710
O193        O  0.68003446  0.51941183  0.42751601    -0.74190
O194        O  0.70841336  0.47472165  0.41642382    -0.54750
C195        C  0.68450061  0.49294567  0.41291664     0.76720
O196        O  0.69630638  0.53177825  0.57696579    -0.59330
O197        O  0.73035465  0.57398102  0.57981444    -0.52450
C198        C  0.70588190  0.55839751  0.58864319     0.73310
Zr199      Zr  0.70935622  0.49489424  0.53459578     2.54710
O200        O  0.65177121  0.49546803  0.53734054    -0.79900
O201        O  0.71263588  0.46102573  0.58138682    -0.93320
Zr202      Zr  0.70829513  0.55503520  0.46343478     2.64680
O203        O  0.65186480  0.56595918  0.46840430    -0.98270
O204        O  0.70993488  0.58758740  0.41560019    -0.80330
O205        O  0.70537816  0.50140484  0.47902597    -0.83690
O206        O  0.71228102  0.54835941  0.51859460    -2.18400
O207        O  0.79627037  0.50355612  0.58338987    -0.67080
O208        O  0.79374960  0.55722217  0.58322510    -0.51640
C209        C  0.79461509  0.53062531  0.59812881     0.71690
O210        O  0.79618389  0.52671148  0.40043113    -0.59990
O211        O  0.77255017  0.47793424  0.40207887    -0.51960
C212        C  0.78456806  0.50157194  0.38682562     0.73490
O213        O  0.79631593  0.60642174  0.46829857    -0.71380
O214        O  0.79838824  0.60932739  0.52165412    -0.50060
C215        C  0.79706502  0.62279423  0.49442290     0.74880
O216        O  0.79680473  0.42804585  0.51059281    -0.66710
O217        O  0.77881110  0.42687795  0.45967059    -0.53910
C218        C  0.78691976  0.41292968  0.48550248     0.73260
Zr219      Zr  0.80293398  0.48505815  0.52712490     2.77540
O220        O  0.85931829  0.49397552  0.51861793    -0.97460
O221        O  0.83166150  0.44922843  0.56230306    -0.78280
Zr222      Zr  0.80197492  0.54862402  0.45520448     2.70070
O223        O  0.85849412  0.54071273  0.46365375    -0.79530
O224        O  0.83081773  0.57942549  0.41564969    -0.98610
Zr225      Zr  0.74972353  0.47575542  0.45524389     2.21500
Zr226      Zr  0.76380790  0.56578205  0.53473342     2.11130
O227        O  0.80838115  0.53979139  0.51142794    -2.47300
O228        O  0.80112457  0.49359140  0.47057163    -0.79320
O229        O  0.75977610  0.51197809  0.55048618    -0.71520
O230        O  0.75101258  0.52981707  0.43886724    -2.32470
O231        O  0.75191508  0.46738764  0.51128626    -2.28680
O232        O  0.75851625  0.57419010  0.47914899    -0.73280
H233        H  0.69547028  0.56082365  0.52772669     0.78720
H234        H  0.74536683  0.53285013  0.41687640     0.79810
H235        H  0.82787480  0.54897163  0.51933269     0.82030
H236        H  0.74761622  0.44585060  0.51762323     0.79640
H237        H  0.69887496  0.57482624  0.39918374     0.42680
H238        H  0.81452254  0.59294617  0.40546190     0.41650
H239        H  0.86379334  0.52224050  0.45013853     0.41320
H240        H  0.86806702  0.49855569  0.54000198     0.39260
H241        H  0.81499063  0.43877982  0.57513197     0.42390
H242        H  0.72768183  0.44405391  0.57543346     0.37170
H243        H  0.64516507  0.50858016  0.51894980     0.43290
H244        H  0.64872302  0.57127945  0.49109262     0.39710
H245        H  0.86788463  0.47284516  0.51301337     0.44620
H246        H  0.69178199  0.45024071  0.58231965     0.43350
H247        H  0.64867382  0.58627385  0.45699118     0.43480
H248        H  0.84413215  0.59442431  0.42799368     0.43840
O249        O  0.45408517  0.53115314  0.65456769    -0.75030
O250        O  0.44233613  0.48808637  0.68529594    -0.53940
C251        C  0.43924541  0.50503381  0.66026922     0.78700
O252        O  0.60340220  0.54084651  0.67244833    -0.59630
O253        O  0.60618654  0.58631653  0.70196572    -0.52660
C254        C  0.61533127  0.56807900  0.67952130     0.70710
O255        O  0.53850048  0.45534687  0.67070575    -0.74190
O256        O  0.49087224  0.44605767  0.69469149    -0.54750
C257        C  0.51388407  0.43830400  0.67641592     0.76720
O258        O  0.51336951  0.62020118  0.67413221    -0.59330
O259        O  0.55894324  0.62721715  0.70267942    -0.52450
C260        C  0.53776797  0.63639799  0.68283772     0.73310
Zr261      Zr  0.49020651  0.56792727  0.68072774     2.54710
O262        O  0.49811872  0.57606398  0.62402481    -0.79900
O263        O  0.44280070  0.60074056  0.67830436    -0.93320
Zr264      Zr  0.55961240  0.50635869  0.68646197     2.64680
O265        O  0.56219065  0.50337482  0.62874621    -0.98270
O266        O  0.60556007  0.47202134  0.69238694    -0.80330
O267        O  0.50450760  0.51387929  0.68140236    -0.83690
O268        O  0.54501586  0.56033295  0.68556712    -2.18400
O269        O  0.49561031  0.62521466  0.76511961    -0.67080
O270        O  0.54882722  0.62671774  0.76786650    -0.51640
C271        C  0.52217405  0.64086751  0.76480248     0.71690
O272        O  0.53387981  0.44600267  0.77822569    -0.59990
O273        O  0.48325461  0.44473197  0.75995571    -0.51960
C274        C  0.50872417  0.43072469  0.76881596     0.73490
O275        O  0.60801653  0.51950420  0.77306270    -0.71380
O276        O  0.60987220  0.57268648  0.76568330    -0.50060
C277        C  0.62376842  0.54576647  0.76903810     0.74880
O278        O  0.42589024  0.54587751  0.77037973    -0.66710
O279        O  0.42743367  0.49587024  0.74974197    -0.53910
C280        C  0.41220949  0.51997181  0.76057175     0.73260
Zr281      Zr  0.48082792  0.56808274  0.77466161     2.77540
O282        O  0.48399499  0.56632230  0.83248040    -0.97460
O283        O  0.44183372  0.60359551  0.79790720    -0.78280
Zr284      Zr  0.55134940  0.50317390  0.78090690     2.70070
O285        O  0.54393730  0.51576749  0.83685080    -0.79530
O286        O  0.58429546  0.46848078  0.81345436    -0.98610
Zr287      Zr  0.48025539  0.49170137  0.72744953     2.21500
Zr288      Zr  0.56111184  0.58090624  0.73605381     2.11130
O289        O  0.53676479  0.55846738  0.78232696    -2.47300
O290        O  0.49523374  0.51282874  0.77791861    -0.79320
O291        O  0.50592445  0.58998292  0.72972553    -0.71520
O292        O  0.53579504  0.48242956  0.73091665    -2.32470
O293        O  0.46459701  0.54600108  0.72490963    -2.28680
O294        O  0.57533896  0.52661164  0.73592766    -0.73280
H295        H  0.55456878  0.57147861  0.66798170     0.78720
H296        H  0.54195742  0.46063341  0.72816460     0.79810
H297        H  0.54486065  0.56876825  0.80119256     0.82030
H298        H  0.44269903  0.54886839  0.71904908     0.79640
H299        H  0.60684493  0.46770209  0.71549059     0.42680
H300        H  0.59796035  0.45724599  0.79804920     0.41650
H301        H  0.53005986  0.49857324  0.84488890     0.41320
H302        H  0.48745201  0.54369189  0.83773540     0.39260
H303        H  0.43054722  0.61287488  0.77945092     0.42390
H304        H  0.42540538  0.58591203  0.67272761     0.37170
H305        H  0.50600166  0.55538311  0.61618523     0.43290
H306        H  0.56039638  0.52567835  0.62152853     0.39710
H307        H  0.50405804  0.57713293  0.83822496     0.44620
H308        H  0.44566378  0.61391696  0.65902721     0.43350
H309        H  0.58441143  0.49749849  0.62416828     0.43480
H310        H  0.59891857  0.48286488  0.82502156     0.43840
O311        O  0.34952350  0.46734442  0.48357184    -0.75030
O312        O  0.31451447  0.43978158  0.51221730    -0.53940
C313        C  0.33929954  0.44113880  0.49471356     0.78700
O314        O  0.34170023  0.60557668  0.48259042    -0.59630
O315        O  0.30947706  0.61589352  0.44018343    -0.52660
C316        C  0.33426667  0.62073315  0.45724320     0.70710
O317        O  0.35204817  0.52439115  0.55010296    -0.74190
O318        O  0.32226152  0.48124114  0.56359002    -0.54750
C319        C  0.34703165  0.49869676  0.56581143     0.76720
O320        O  0.33414519  0.53259578  0.40142338    -0.59330
O321        O  0.30345432  0.57682669  0.39604924    -0.52450
C322        C  0.32659614  0.55906929  0.38819488     0.73310
Zr323      Zr  0.32006094  0.49750776  0.44507038     2.54710
O324        O  0.37129300  0.48604485  0.42140133    -0.79900
O325        O  0.30787435  0.45248269  0.41074482    -0.93320
Zr326      Zr  0.32569236  0.56071733  0.51407625     2.64680
O327        O  0.38225699  0.57066015  0.52084820    -0.98270
O328        O  0.31931708  0.59774231  0.55802441    -0.80330
O329        O  0.32552593  0.50666896  0.50024376    -0.83690
O330        O  0.32143073  0.55139090  0.45899910    -2.18400
O331        O  0.23417348  0.50976128  0.39736494    -0.67080
O332        O  0.24202984  0.56283875  0.39352420    -0.51640
C333        C  0.23859326  0.53529303  0.38071601     0.71690
O334        O  0.23621171  0.53940930  0.57784466    -0.59990
O335        O  0.25702435  0.48946167  0.57767269    -0.51960
C336        C  0.24612588  0.51402276  0.59222043     0.73490
O337        O  0.24237252  0.61777006  0.50789568    -0.71380
O338        O  0.24068423  0.61928964  0.45442326    -0.50060
C339        C  0.24280353  0.63341631  0.48128796     0.74880
O340        O  0.22759053  0.43867001  0.47226009    -0.66710
O341        O  0.24909884  0.43561345  0.52187562    -0.53910
C342        C  0.23731534  0.42273306  0.49677972     0.73260
Zr343      Zr  0.22643704  0.49499208  0.45409580     2.77540
O344        O  0.17108983  0.50834360  0.46320592    -0.97460
O345        O  0.19407876  0.46094162  0.42017034    -0.78280
Zr346      Zr  0.23269674  0.56078357  0.52274899     2.70070
O347        O  0.17570297  0.55699164  0.51442560    -0.79530
O348        O  0.20690032  0.59451403  0.56190381    -0.98610
Zr349      Zr  0.28024674  0.48378147  0.52531114     2.21500
Zr350      Zr  0.27147879  0.57282187  0.44244565     2.11130
O351        O  0.22524569  0.55066050  0.46694834    -2.47300
O352        O  0.23008357  0.50509453  0.51003332    -0.79320
O353        O  0.27113963  0.51813239  0.42964481    -0.71520
O354        O  0.28200274  0.53860176  0.53970629    -2.32470
O355        O  0.27611641  0.47322885  0.46957213    -2.28680
O356        O  0.27747627  0.58337169  0.49773203    -0.73280
H357        H  0.33977464  0.56063414  0.44903730     0.78720
H358        H  0.28777882  0.54201273  0.56162430     0.79810
H359        H  0.20638746  0.56080434  0.45880301     0.82030
H360        H  0.27912674  0.45117576  0.46430349     0.79640
H361        H  0.33187970  0.58836108  0.57557088     0.42680
H362        H  0.22428418  0.60735813  0.57123511     0.41650
H363        H  0.16880731  0.53989977  0.52903489     0.41320
H364        H  0.16237654  0.51310710  0.44185621     0.39260
H365        H  0.20953629  0.44812347  0.40806170     0.42390
H366        H  0.32170433  0.43520572  0.41862779     0.37170
H367        H  0.38609578  0.50111067  0.43181727     0.43290
H368        H  0.39132131  0.56883031  0.49925557     0.39710
H369        H  0.16093212  0.48806482  0.46944183     0.44620
H370        H  0.31691755  0.45836441  0.38986951     0.43350
H371        H  0.38414371  0.59346318  0.52630743     0.43480
H372        H  0.19427665  0.60987385  0.54936019     0.43840
O373        O  0.83481997  0.60549566  0.01092420    -0.75030
O374        O  0.81345257  0.61550473  0.96204795    -0.53940
C375        C  0.83084558  0.62276169  0.98607023     0.78700
O376        O  0.79572824  0.44005430  0.97430389    -0.59630
O377        O  0.79481631  0.43519534  0.02694034    -0.52660
C378        C  0.80365002  0.42527904  0.99951384     0.70710
O379        O  0.83231754  0.51804729  0.91418531    -0.74190
O380        O  0.81332839  0.56868307  0.91034960    -0.54750
C381        C  0.82988519  0.54517054  0.90066570     0.76720
O382        O  0.79867629  0.53436132  0.08076247    -0.59330
O383        O  0.79665325  0.48162863  0.08032329    -0.52450
C384        C  0.80762575  0.50763760  0.09161080     0.73310
Zr385      Zr  0.81901772  0.55378316  0.03095097     2.54710
O386        O  0.87278145  0.53305405  0.03322956    -0.79900
O387        O  0.84372655  0.58399795  0.07384618    -0.93320
Zr388      Zr  0.81593544  0.49219108  0.96252873     2.64680
O389        O  0.86967665  0.48261495  0.98145098    -0.98270
O390        O  0.83739161  0.45670885  0.92238079    -0.80330
O391        O  0.82155251  0.54665296  0.97528051    -0.83690
O392        O  0.81488547  0.49923209  0.01808879    -2.18400
O393        O  0.73061007  0.54531604  0.08226173    -0.67080
O394        O  0.73168703  0.49155533  0.08159750    -0.51640
C395        C  0.73178851  0.51802376  0.09673653     0.71690
O396        O  0.72708413  0.52260457  0.90022467    -0.59990
O397        O  0.74988406  0.57172599  0.90205938    -0.51960
C398        C  0.73872215  0.54778746  0.88664337     0.73490
O399        O  0.72577141  0.44260748  0.96913065    -0.71380
O400        O  0.72676152  0.43965289  0.02261835    -0.50060
C401        C  0.72645909  0.42619181  0.99535182     0.74880
O402        O  0.73169608  0.62221677  0.00982499    -0.66710
O403        O  0.75054819  0.62368630  0.95924759    -0.53910
C404        C  0.74244288  0.63748075  0.98519464     0.73260
Zr405      Zr  0.72477413  0.56505316  0.02613475     2.77540
O406        O  0.66810724  0.55856043  0.01713432    -0.97460
O407        O  0.69856454  0.60083640  0.06307683    -0.78280
Zr408      Zr  0.72178923  0.50087299  0.95542422     2.70070
O409        O  0.66584788  0.51050371  0.96532568    -0.79530
O410        O  0.69169043  0.47067410  0.91615987    -0.98610
Zr411      Zr  0.77630173  0.57281884  0.95330401     2.21500
Zr412      Zr  0.76258788  0.48255028  0.03433365     2.11130
O413        O  0.71809433  0.51010639  0.01167254    -2.47300
O414        O  0.72475346  0.55619122  0.96971336    -0.79320
O415        O  0.76820343  0.53719828  0.04745548    -0.71520
O416        O  0.77287095  0.51825030  0.93868416    -2.32470
O417        O  0.77587376  0.58182018  0.00923944    -2.28680
O418        O  0.76531984  0.47469204  0.97855275    -0.73280
H419        H  0.83113069  0.48687612  0.02847740     0.78720
H420        H  0.77661777  0.51385999  0.91660591     0.79810
H421        H  0.69856451  0.50162778  0.02011150     0.82030
H422        H  0.78019118  0.60316055  0.01605228     0.79640
H423        H  0.81902913  0.45137768  0.90865105     0.42680
H424        H  0.70744210  0.45644946  0.90619396     0.41650
H425        H  0.66031032  0.52817417  0.95082135     0.41320
H426        H  0.65930615  0.55342848  0.03831104     0.39260
H427        H  0.71608513  0.61114031  0.07496258     0.42390
H428        H  0.83039888  0.60316760  0.07617076     0.37170
H429        H  0.88439390  0.54534026  0.01690512     0.43290
H430        H  0.87155649  0.45918802  0.98221198     0.39710
H431        H  0.66032841  0.58022898  0.01243960     0.44620
H432        H  0.86401824  0.59192459  0.06511227     0.43350
H433        H  0.88339260  0.48914478  0.96354621     0.43480
H434        H  0.67790925  0.45632225  0.92866553     0.43840
O435        O  0.01803825  0.45809547  0.80743679    -0.75030
O436        O  0.96795375  0.46034540  0.78708821    -0.53940
C437        C  0.98983594  0.44708013  0.80329884     0.78700
O438        O  0.03173588  0.62539882  0.80479719    -0.59630
O439        O  0.07905638  0.62202940  0.77910938    -0.52660
C440        C  0.05943923  0.63583745  0.79775590     0.70710
O441        O  0.94921421  0.56084388  0.81611619    -0.74190
O442        O  0.93031253  0.51719643  0.79028941    -0.54750
C443        C  0.92831428  0.53943943  0.81123192     0.76720
O444        O  0.10683361  0.51143849  0.78708567    -0.59330
O445        O  0.11676220  0.56280887  0.77371223    -0.52450
C446        C  0.12525156  0.53550402  0.78447695     0.73310
Zr447      Zr  0.05098586  0.50413540  0.79449770     2.54710
O448        O  0.05397414  0.51802940  0.85059387    -0.79900
O449        O  0.08374258  0.45951043  0.81120479    -0.93320
Zr450      Zr  0.99887010  0.57895912  0.79745081     2.64680
O451        O  0.00670944  0.57775941  0.85480600    -0.98270
O452        O  0.96451042  0.62503851  0.80213562    -0.80330
O453        O  0.99889902  0.52281921  0.79870846    -0.83690
O454        O  0.05109661  0.56018354  0.79484597    -2.18400
O455        O  0.10392158  0.51079929  0.70599462    -0.67080
O456        O  0.11179006  0.56362440  0.70832825    -0.51640
C457        C  0.12266107  0.53525004  0.70774147     0.71690
O458        O  0.92932322  0.56545709  0.70826212    -0.59990
O459        O  0.92481266  0.51342829  0.72151963    -0.51960
C460        C  0.91256335  0.54050006  0.71535217     0.73490
O461        O  0.01012702  0.63191976  0.71279174    -0.71380
O462        O  0.06349063  0.62940690  0.71927763    -0.50060
C463        C  0.03756309  0.64533259  0.71689377     0.74880
O464        O  0.01918642  0.45005624  0.70065394    -0.66710
O465        O  0.97167733  0.45242823  0.72629175    -0.53910
C466        C  0.99403665  0.43690429  0.71244235     0.73260
Zr467      Zr  0.04527279  0.50298567  0.69935932     2.77540
O468        O  0.03951919  0.51124519  0.64227469    -0.97460
O469        O  0.07516855  0.46304653  0.67041205    -0.78280
Zr470      Zr  0.98754113  0.57798292  0.70330530     2.70070
O471        O  0.99512441  0.57284644  0.64622886    -0.79530
O472        O  0.95433887  0.61719180  0.67670546    -0.98610
Zr473      Zr  0.97194524  0.50450391  0.75213736     2.21500
Zr474      Zr  0.06957861  0.57749732  0.74407221     2.11130
O475        O  0.04136780  0.55987253  0.69744123    -2.47300
O476        O  0.99132932  0.52125743  0.70142166    -0.79320
O477        O  0.07159658  0.52127219  0.74522875    -0.71520
O478        O  0.96872492  0.56102108  0.75351900    -2.32470
O479        O  0.02498306  0.48521793  0.74913482    -2.28680
O480        O  0.01683265  0.59563222  0.74791288    -0.73280
H481        H  0.06403156  0.56837091  0.81198510     0.78720
H482        H  0.94782758  0.56887797  0.75810225     0.79810
H483        H  0.05108762  0.56869204  0.67865745     0.82030
H484        H  0.02758599  0.46274742  0.75213199     0.79640
H485        H  0.96146323  0.63237350  0.77997347     0.42680
H486        H  0.94681094  0.63123731  0.69396320     0.41650
H487        H  0.97563689  0.56210521  0.63858979     0.41320
H488        H  0.01652736  0.51422501  0.63876135     0.39260
H489        H  0.08534846  0.44998095  0.68712546     0.42390
H490        H  0.07867643  0.44224028  0.79602593     0.37170
H491        H  0.03403982  0.50962142  0.85970300     0.43290
H492        H  0.02825567  0.58648792  0.85823500     0.39710
H493        H  0.04924018  0.53212349  0.63759827     0.44620
H494        H  0.07482641  0.45235013  0.83173619     0.43350
H495        H  0.99236349  0.59439742  0.86301161     0.43480
H496        H  0.96912638  0.63057190  0.66427768     0.43840
O497        O  0.17908142  0.44825467  0.99176460    -0.75030
O498        O  0.20313929  0.43579755  0.94542652    -0.53940
C499        C  0.18322458  0.43014737  0.96784906     0.78700
O500        O  0.22002608  0.61230047  0.97145363    -0.59630
O501        O  0.22538591  0.61250776  0.02496956    -0.52660
C502        C  0.21883972  0.62630757  0.99838592     0.70710
O503        O  0.19624832  0.54046138  0.90227832    -0.74190
O504        O  0.21474723  0.49029301  0.89414155    -0.54750
C505        C  0.20197208  0.51628509  0.88460711     0.76720
O506        O  0.20297670  0.50605594  0.07401442    -0.59330
O507        O  0.22165570  0.55625741  0.08047768    -0.52450
C508        C  0.20862405  0.53057159  0.09104876     0.73310
Zr509      Zr  0.19631732  0.49496981  0.01866516     2.54710
O510        O  0.14233317  0.51516053  0.01847172    -0.79900
O511        O  0.17255915  0.45791662  0.05632657    -0.93320
Zr512      Zr  0.20488481  0.55940817  0.95594112     2.64680
O513        O  0.14913064  0.56253487  0.97017150    -0.98270
O514        O  0.18406178  0.59903600  0.91929162    -0.80330
O515        O  0.19669470  0.50450564  0.96335016    -0.83690
O516        O  0.20199636  0.54994124  0.01119821    -2.18400
O517        O  0.28463809  0.49597449  0.07625940    -0.67080
O518        O  0.28451225  0.54969181  0.07842206    -0.51640
C519        C  0.28439767  0.52241169  0.09201610     0.71690
O520        O  0.29862145  0.53028099  0.89876739    -0.59990
O521        O  0.27529144  0.48147131  0.89583099    -0.51960
C522        C  0.28765490  0.50620758  0.88284791     0.73490
O523        O  0.29631586  0.60514806  0.97249617    -0.71380
O524        O  0.28991264  0.60598106  0.02579695    -0.50060
C525        C  0.29391788  0.62036092  0.99923863     0.74880
O526        O  0.28408651  0.42495148  0.99931423    -0.66710
O527        O  0.26582266  0.42595491  0.94825995    -0.53910
C528        C  0.27462687  0.41106816  0.97345580     0.73260
Zr529      Zr  0.29029149  0.48016913  0.01961737     2.77540
O530        O  0.34744719  0.48517732  0.01387516    -0.97460
O531        O  0.31216926  0.44047560  0.05557509    -0.78280
Zr532      Zr  0.29957166  0.54822816  0.95539014     2.70070
O533        O  0.35442369  0.53678735  0.96915573    -0.79530
O534        O  0.33197030  0.58051521  0.91999707    -0.98610
Zr535      Zr  0.24263258  0.47825675  0.94294252     2.21500
Zr536      Zr  0.25335951  0.56238796  0.03208295     2.11130
O537        O  0.29902804  0.53572656  0.01080116    -2.47300
O538        O  0.29365790  0.49212968  0.96415260    -0.79320
O539        O  0.24614859  0.50740918  0.04026292    -0.71520
O540        O  0.24942091  0.53392898  0.93429902    -2.32470
O541        O  0.23979353  0.46647115  0.99832026    -2.28680
O542        O  0.25481663  0.57377759  0.97694455    -0.73280
H543        H  0.18552157  0.56197445  0.02153123     0.78720
H544        H  0.24912609  0.54087529  0.91261834     0.79810
H545        H  0.31812271  0.54299000  0.02127402     0.82030
H546        H  0.23444510  0.44474987  0.00303273     0.79640
H547        H  0.20263834  0.60602238  0.90676019     0.42680
H548        H  0.31706573  0.59607483  0.91062543     0.41650
H549        H  0.36130714  0.52132611  0.95286979     0.41320
H550        H  0.35543636  0.48838827  0.03579736     0.39260
H551        H  0.29343531  0.43038597  0.06551466     0.42390
H552        H  0.18213310  0.43696639  0.05177256     0.37170
H553        H  0.13066320  0.50061975  0.00407876     0.43290
H554        H  0.14525871  0.58544962  0.97368150     0.39710
H555        H  0.35464738  0.46360970  0.00799709     0.44620
H556        H  0.15009418  0.45590011  0.04980510     0.43350
H557        H  0.13762139  0.55750603  0.95024500     0.43480
H558        H  0.34578059  0.59327172  0.93418304     0.43840
O559        O  0.00892421  0.58434502  0.15484325    -0.75030
O560        O  0.96370305  0.59145116  0.18347308    -0.53940
C561        C  0.98190104  0.59729712  0.15996251     0.78700
O562        O  0.01951129  0.42627171  0.16924163    -0.59630
O563        O  0.06856267  0.42814978  0.19205280    -0.52660
C564        C  0.04701342  0.41466539  0.17511840     0.70710
O565        O  0.94073539  0.49592768  0.15819247    -0.74190
O566        O  0.92467236  0.53930141  0.18605008    -0.54750
C567        C  0.92068650  0.51765965  0.16481485     0.76720
O568        O  0.10171796  0.53710751  0.17852191    -0.59330
O569        O  0.11160020  0.48748829  0.19761783    -0.52450
C570        C  0.12016342  0.51370860  0.18411369     0.73310
Zr571      Zr  0.04614629  0.54729832  0.17802035     2.54710
O572        O  0.05512970  0.53633342  0.12196743    -0.79900
O573        O  0.07425522  0.59763914  0.17232814    -0.93320
Zr574      Zr  0.99019228  0.47494059  0.17594171     2.64680
O575        O  0.99806496  0.47668570  0.11863956    -0.98270
O576        O  0.95266506  0.43113269  0.17135813    -0.80330
O577        O  0.99319573  0.53068606  0.17574392    -0.83690
O578        O  0.04354117  0.49136197  0.17713719    -2.18400
O579        O  0.10053775  0.53799642  0.26645766    -0.67080
O580        O  0.10670626  0.48492138  0.26274311    -0.51640
C581        C  0.11829455  0.51303764  0.26448077     0.71690
O582        O  0.92499010  0.49015970  0.26763074    -0.59990
O583        O  0.91987899  0.54162020  0.25197291    -0.51960
C584        C  0.90800462  0.51476904  0.26018951     0.73490
O585        O  0.00268655  0.42148425  0.26091979    -0.71380
O586        O  0.05577380  0.42169823  0.25215849    -0.50060
C587        C  0.02924762  0.40695268  0.25599864     0.74880
O588        O  0.01994726  0.60234564  0.27208157    -0.66710
O589        O  0.97122915  0.60233267  0.24838811    -0.53910
C590        C  0.99504537  0.61665288  0.26136702     0.73260
Zr591      Zr  0.04286055  0.54853841  0.27296785     2.77540
O592        O  0.03743436  0.54069980  0.33011179    -0.97460
O593        O  0.07546399  0.58683784  0.30166358    -0.78280
Zr594      Zr  0.98265783  0.47600872  0.27040096     2.70070
O595        O  0.99233965  0.48053572  0.32726744    -0.79530
O596        O  0.94834541  0.43784609  0.29716229    -0.98610
Zr597      Zr  0.96804927  0.55037026  0.22244989     2.21500
Zr598      Zr  0.06344265  0.47337158  0.22714630     2.11130
O599        O  0.03732966  0.49185484  0.27456801    -2.47300
O600        O  0.98820899  0.53253420  0.27257389    -0.79320
O601        O  0.06752707  0.52946224  0.22663419    -0.71520
O602        O  0.96274833  0.49395056  0.22089305    -2.32470
O603        O  0.02190942  0.56758693  0.22357367    -2.28680
O604        O  0.00961783  0.45754344  0.22488446    -0.73280
H605        H  0.05544192  0.48277215  0.15956921     0.78720
H606        H  0.94139903  0.48683722  0.21690939     0.79810
H607        H  0.04727792  0.48272889  0.29312866     0.82030
H608        H  0.02452740  0.58993223  0.21947796     0.79640
H609        H  0.94908307  0.42859092  0.14823192     0.42680
H610        H  0.94013661  0.42399322  0.27996889     0.41650
H611        H  0.97326150  0.49131343  0.33557241     0.41320
H612        H  0.01434111  0.53932365  0.33386755     0.39260
H613        H  0.08566353  0.59976640  0.28488299     0.42390
H614        H  0.05966132  0.61404354  0.18055054     0.37170
H615        H  0.03367246  0.53610063  0.11238214     0.43290
H616        H  0.01758962  0.46427630  0.11490525     0.39710
H617        H  0.04565543  0.51919866  0.33468956     0.44620
H618        H  0.07492843  0.60144154  0.14911634     0.43350
H619        H  0.98084408  0.46332248  0.10976584     0.43480
H620        H  0.96274864  0.42405703  0.30960871     0.43840
O621        O  0.93225184  0.35275244  0.00550026    -0.75030
O622        O  0.91749662  0.33152318  0.95778300    -0.53940
C623        C  0.91239629  0.34850477  0.98265629     0.78700
O624        O  0.09320601  0.31071702  0.95796214    -0.59630
O625        O  0.10067591  0.30718984  0.01026255    -0.52660
C626        C  0.10876853  0.31783563  0.98289839     0.70710
O627        O  0.01128784  0.35047088  0.90268194    -0.74190
O628        O  0.95977818  0.33398236  0.90200201    -0.54750
C629        C  0.98327264  0.34936697  0.89058986     0.76720
O630        O  0.01638864  0.33578972  0.06948308    -0.59330
O631        O  0.06186589  0.30667411  0.06694114    -0.52450
C632        C  0.04294430  0.32588952  0.08085753     0.73310
Zr633      Zr  0.98432612  0.33433182  0.02136337     2.54710
O634        O  0.99540945  0.39108015  0.02007773    -0.79900
O635        O  0.95216866  0.34176058  0.06875072    -0.93320
Zr636      Zr  0.04129496  0.33292937  0.94894722     2.64680
O637        O  0.05355146  0.38782528  0.96337148    -0.98270
O638        O  0.07637213  0.35127569  0.90691165    -0.80330
O639        O  0.98817807  0.33921272  0.96545343    -0.83690
O640        O  0.03738147  0.32935578  0.00499211    -2.18400
O641        O  0.99052688  0.24390459  0.06915590    -0.67080
O642        O  0.04414267  0.24738817  0.06830500    -0.51640
C643        C  0.01779689  0.24530675  0.08344976     0.71690
O644        O  0.00644915  0.24572475  0.88658597    -0.59990
O645        O  0.95988084  0.27286486  0.88982800    -0.51960
C646        C  0.98238925  0.25996743  0.87372720     0.73490
O647        O  0.08814525  0.24091071  0.95154099    -0.71380
O648        O  0.09325676  0.23896671  0.00477571    -0.50060
C649        C  0.10552988  0.23968485  0.97702681     0.74880
O650        O  0.91253256  0.24751560  0.99950198    -0.66710
O651        O  0.90927824  0.26882945  0.95000263    -0.53910
C652        C  0.89638652  0.25894412  0.97577565     0.73260
Zr653      Zr  0.96989030  0.24016562  0.01364953     2.77540
O654        O  0.97573378  0.18358604  0.00331694    -0.97460
O655        O  0.93450568  0.21307723  0.05043532    -0.78280
Zr656      Zr  0.02974501  0.23863561  0.94047349     2.70070
O657        O  0.01898972  0.18244252  0.94889017    -0.79530
O658        O  0.05742503  0.20930062  0.89912226    -0.98610
Zr659      Zr  0.95961125  0.29522093  0.94338254     2.21500
Zr660      Zr  0.05294203  0.27636939  0.01927752     2.11130
O661        O  0.02371399  0.23272937  0.99688358    -2.47300
O662        O  0.97538716  0.24243843  0.95694229    -0.79320
O663        O  0.99967493  0.28257122  0.03553220    -0.71520
O664        O  0.01310498  0.29082468  0.92592013    -2.32470
O665        O  0.95427562  0.29221561  0.99963304    -2.28680
O666        O  0.05794784  0.28122248  0.96329644    -0.73280
H667        H  0.05061918  0.34483702  0.01551800     0.78720
H668        H  0.01684061  0.29520140  0.90384799     0.79810
H669        H  0.03216587  0.21276044  0.00433771     0.82030
H670        H  0.93326536  0.29618984  0.00737496     0.79640
H671        H  0.07826159  0.33284383  0.89243490     0.42680
H672        H  0.07174739  0.22509206  0.88920919     0.41650
H673        H  0.00092725  0.17770306  0.93456222     0.41320
H674        H  0.98083241  0.17415803  0.02427319     0.39260
H675        H  0.92501171  0.23030676  0.06324966     0.42390
H676        H  0.93323888  0.32821873  0.06534789     0.37170
H677        H  0.98543277  0.39859778  0.00012538     0.43290
H678        H  0.05126080  0.38967070  0.98665739     0.39710
H679        H  0.95401666  0.17603225  0.99844693     0.44620
H680        H  0.94421054  0.36381583  0.06729429     0.43350
H681        H  0.07656059  0.39017273  0.95954597     0.43480
H682        H  0.07173523  0.19460794  0.91059576     0.43840
O683        O  0.94939206  0.70559630  0.96693506    -0.75030
O684        O  0.93546922  0.72892684  0.01374521    -0.53940
C685        C  0.92974675  0.71128295  0.98940949     0.78700
O686        O  0.11223443  0.71238025  0.01327705    -0.59630
O687        O  0.12340321  0.73769204  0.96675710    -0.52660
C688        C  0.13120750  0.72086236  0.99114474     0.70710
O689        O  0.01771722  0.68737809  0.05841717    -0.74190
O690        O  0.97391649  0.71780444  0.06700660    -0.54750
C691        C  0.99071102  0.69302480  0.07136629     0.76720
O692        O  0.03451593  0.71703657  0.90326998    -0.59330
O693        O  0.08354657  0.73943222  0.90836491    -0.52450
C694        C  0.06259079  0.72335838  0.89318154     0.73310
Zr695      Zr  0.00139434  0.72193850  0.95007701     2.54710
O696        O  0.00371044  0.66443802  0.94470774    -0.79900
O697        O  0.96807470  0.72686343  0.90297868    -0.93320
Zr698      Zr  0.05639413  0.71228838  0.02347073     2.64680
O699        O  0.06312924  0.65732821  0.00679102    -0.98270
O700        O  0.08292891  0.69967782  0.07335428    -0.80330
O701        O  0.00374552  0.71447690  0.00555033    -0.83690
O702        O  0.05431640  0.71887412  0.96781011    -2.18400
O703        O  0.01753189  0.81129971  0.90752883    -0.67080
O704        O  0.06989002  0.79887617  0.90610750    -0.51640
C705        C  0.04351919  0.80576862  0.89212255     0.71690
O706        O  0.03303000  0.80083771  0.08969158    -0.59990
O707        O  0.98346994  0.77971487  0.08452131    -0.51960
C708        C  0.00667220  0.79024901  0.10150753     0.73490
O709        O  0.11599554  0.79846979  0.02483706    -0.71380
O710        O  0.11943239  0.80402241  0.97189359    -0.50060
C711        C  0.13263002  0.79990378  0.99897139     0.74880
O712        O  0.93990900  0.81348471  0.97651341    -0.66710
O713        O  0.93590325  0.79428580  0.02660074    -0.53910
C714        C  0.92326386  0.80388092  0.00064856     0.73260
Zr715      Zr  0.99809017  0.81610801  0.96312955     2.77540
O716        O  0.01089758  0.87095949  0.97646334    -0.97460
O717        O  0.96725731  0.84989939  0.92772459    -0.78280
Zr718      Zr  0.05816455  0.80641521  0.03649816     2.70070
O719        O  0.05517682  0.86386096  0.03075207    -0.79530
O720        O  0.08942209  0.82906610  0.07976773    -0.98610
Zr721      Zr  0.98108362  0.76001972  0.03019971     2.21500
Zr722      Zr  0.07654429  0.76985955  0.95613687     2.11130
O723        O  0.05263453  0.81567555  0.98031482    -2.47300
O724        O  0.00383371  0.81075788  0.01951074    -0.79320
O725        O  0.02309914  0.77186423  0.93964476    -0.71520
O726        O  0.03425913  0.75632845  0.04887312    -2.32470
O727        O  0.97594044  0.76565608  0.97411505    -2.28680
O728        O  0.08053425  0.76158575  0.01179971    -0.73280
H729        H  0.06566374  0.70195580  0.95737267     0.78720
H730        H  0.03593444  0.74980246  0.07076219     0.79810
H731        H  0.06349422  0.83483142  0.97385059     0.82030
H732        H  0.95460016  0.76372771  0.96622970     0.79640
H733        H  0.09224047  0.72010885  0.08043714     0.42680
H734        H  0.10181959  0.81102167  0.08830349     0.41650
H735        H  0.03800315  0.87026565  0.04536442     0.41320
H736        H  0.01752382  0.88073580  0.95613173     0.39260
H737        H  0.95490709  0.83491456  0.91439036     0.42390
H738        H  0.94910061  0.73858102  0.91017406     0.37170
H739        H  0.00763389  0.65663196  0.96656105     0.43290
H740        H  0.08456141  0.65648026  0.99734447     0.39710
H741        H  0.99025057  0.88089618  0.98136951     0.44620
H742        H  0.96039677  0.70502836  0.89874476     0.43350
H743        H  0.06507244  0.64527982  0.02691200     0.43480
H744        H  0.10531248  0.84289252  0.06935405     0.43840
O745        O  0.61455240  0.83933686  0.99488401    -0.75030
O746        O  0.62004874  0.81831308  0.94526897    -0.53940
C747        C  0.62987159  0.83445550  0.96918118     0.78700
O748        O  0.54036489  0.73467171  0.07209038    -0.59630
O749        O  0.48903681  0.75060913  0.07146576    -0.52660
C750        C  0.51420528  0.74218075  0.08647343     0.70710
O751        O  0.61774468  0.74703598  0.00317666    -0.74190
O752        O  0.62153342  0.75570408  0.95027534    -0.54750
C753        C  0.63441951  0.75258301  0.97783022     0.76720
O754        O  0.52482320  0.85106560  0.05465761    -0.59330
O755        O  0.49393078  0.81218576  0.07417422    -0.52450
C756        C  0.51184104  0.83634897  0.07781040     0.73310
Zr757      Zr  0.56382128  0.83012094  0.01855719     2.54710
O758        O  0.59676968  0.82145251  0.06542048    -0.79900
O759        O  0.57552558  0.88648376  0.02483043    -0.93320
Zr760      Zr  0.56072243  0.73582181  0.01595018     2.64680
O761        O  0.59593441  0.70370007  0.04878721    -0.98270
O762        O  0.55447470  0.68039426  0.00062714    -0.80330
O763        O  0.58302587  0.78316808  0.99599289    -0.83690
O764        O  0.54110293  0.78350986  0.03860074    -2.18400
O765        O  0.46056657  0.85863884  0.98628285    -0.67080
O766        O  0.44698594  0.82654213  0.02778648    -0.51640
C767        C  0.44429489  0.85191258  0.01111271     0.71690
O768        O  0.51083671  0.75295205  0.89200703    -0.59990
O769        O  0.56417546  0.75891140  0.89042843    -0.51960
C770        C  0.53704214  0.75711175  0.87655787     0.73490
O771        O  0.43782541  0.74166050  0.96561478    -0.71380
O772        O  0.43538599  0.75890319  0.01688525    -0.50060
C773        C  0.42222215  0.74902702  0.99111848     0.74880
O774        O  0.52549097  0.84752747  0.90242186    -0.66710
O775        O  0.57312854  0.82284217  0.89668098    -0.53910
C776        C  0.55126871  0.84193605  0.88747259     0.73260
Zr777      Zr  0.49978795  0.83559732  0.95182993     2.77540
O778        O  0.45479406  0.83654208  0.91540018    -0.97460
O779        O  0.50465222  0.89304222  0.94738822    -0.78280
Zr780      Zr  0.49430520  0.74144381  0.94758728     2.70070
O781        O  0.45900689  0.71586526  0.90942150    -0.79530
O782        O  0.50492913  0.68471452  0.95063658    -0.98610
Zr783      Zr  0.57336407  0.78559122  0.94061106     2.21500
Zr784      Zr  0.48588850  0.78472947  0.02532080     2.11130
O785        O  0.47441247  0.78933062  0.97007637    -2.47300
O786        O  0.51849311  0.78851702  0.92884877    -0.79320
O787        O  0.50955166  0.83267122  0.00661110    -0.71520
O788        O  0.55003101  0.73702812  0.95959418    -2.32470
O789        O  0.55453153  0.83402132  0.96330492    -2.28680
O790        O  0.50506778  0.73631465  0.00332584    -0.73280
H791        H  0.54576135  0.78608608  0.06086559     0.78720
H792        H  0.55937766  0.71906868  0.94889328     0.79810
H793        H  0.45245365  0.79397365  0.96582062     0.82030
H794        H  0.56512622  0.85242396  0.95460214     0.79640
H795        H  0.57468460  0.67489678  0.99011430     0.42680
H796        H  0.48406784  0.67485154  0.95499013     0.41650
H797        H  0.44721272  0.73356131  0.89940892     0.41320
H798        H  0.43617315  0.84090807  0.92894401     0.39260
H799        H  0.51788609  0.89926662  0.96585429     0.42390
H800        H  0.58007387  0.89417381  0.00307420     0.37170
H801        H  0.61755666  0.83090929  0.05997917     0.43290
H802        H  0.60382450  0.71842094  0.06539627     0.39710
H803        H  0.45773501  0.85623656  0.90287648     0.44620
H804        H  0.59622687  0.88724393  0.03595870     0.43350
H805        H  0.58192291  0.68871808  0.06025874     0.43480
H806        H  0.50995435  0.67838985  0.92856102     0.43840
O807        O  0.59334711  0.05594140  0.81440459    -0.75030
O808        O  0.60892442  0.00997131  0.79088411    -0.53940
C809        C  0.61244389  0.03268495  0.81103893     0.78700
O810        O  0.43709036  0.03219497  0.80260302    -0.59630
O811        O  0.43034164  0.07658046  0.77189311    -0.52660
C812        C  0.42186889  0.05702346  0.79352973     0.70710
O813        O  0.51671742  0.95888433  0.81021648    -0.74190
O814        O  0.56674857  0.95738151  0.78972485    -0.54750
C815        C  0.54426715  0.94609490  0.80659508     0.76720
O816        O  0.51604187  0.12715608  0.79597289    -0.59330
O817        O  0.46972503  0.12570368  0.76800619    -0.52450
C818        C  0.48951481  0.13911335  0.78679333     0.73310
Zr819      Zr  0.54604426  0.07818353  0.79299425     2.54710
O820        O  0.53595283  0.08179798  0.84980610    -0.79900
O821        O  0.58390448  0.12182701  0.79669961    -0.93320
Zr822      Zr  0.48752928  0.00644537  0.79331987     2.64680
O823        O  0.48740427  0.01065672  0.85101985    -0.98270
O824        O  0.44811002  0.96416685  0.79459532    -0.80330
O825        O  0.54090658  0.02238291  0.79736423    -0.83690
O826        O  0.49318898  0.06223323  0.78975538    -2.18400
O827        O  0.53821842  0.12736802  0.70628802    -0.67080
O828        O  0.48470414  0.12681757  0.70853758    -0.51640
C829        C  0.51123541  0.14195028  0.70829495     0.71690
O830        O  0.51702425  0.94556355  0.70209377    -0.59990
O831        O  0.56428589  0.94716439  0.72843072    -0.51960
C832        C  0.54157328  0.93187697  0.71458816     0.73490
O833        O  0.43607500  0.01036125  0.70517852    -0.71380
O834        O  0.43006014  0.06355302  0.70629859    -0.50060
C835        C  0.41827049  0.03542788  0.70618707     0.74880
O836        O  0.61391941  0.05634989  0.70604252    -0.66710
O837        O  0.61551036  0.00521593  0.72305139    -0.53910
C838        C  0.62915663  0.03142135  0.71577652     0.73260
Zr839      Zr  0.55700082  0.07154882  0.69909199     2.77540
O840        O  0.54928687  0.06248974  0.64241982    -0.97460
O841        O  0.59185698  0.10799836  0.67080617    -0.78280
Zr842      Zr  0.49414647  0.99988219  0.69854330     2.70070
O843        O  0.50105367  0.01056553  0.64211291    -0.79530
O844        O  0.46461791  0.95996897  0.66863206    -0.98610
Zr845      Zr  0.56697425  0.99989803  0.75240465     2.21500
Zr846      Zr  0.47571528  0.07790012  0.73798627     2.11130
O847        O  0.50225215  0.05607396  0.69285450    -2.47300
O848        O  0.54918424  0.01506070  0.70064679    -0.79320
O849        O  0.52929487  0.09337882  0.74236417    -0.71520
O850        O  0.51290335  0.98386467  0.74939625    -2.32470
O851        O  0.57460258  0.05597367  0.75053492    -2.28680
O852        O  0.46824431  0.02220150  0.74284883    -0.73280
H853        H  0.48178684  0.07282424  0.80652849     0.78720
H854        H  0.50934270  0.96163160  0.75323027     0.79810
H855        H  0.49313947  0.06423116  0.67341510     0.82030
H856        H  0.59592230  0.06252079  0.75553610     0.79640
H857        H  0.45091358  0.95278394  0.77421165     0.42680
H858        H  0.45130986  0.94912102  0.68467361     0.41650
H859        H  0.51921226  0.99713093  0.63586194     0.41320
H860        H  0.54401158  0.08361886  0.63355780     0.39260
H861        H  0.60258028  0.12037061  0.68774687     0.42390
H862        H  0.60275532  0.11452312  0.78485028     0.37170
H863        H  0.54084931  0.06035399  0.85810788     0.43290
H864        H  0.48077611  0.03276900  0.85535331     0.39710
H865        H  0.57069771  0.05775630  0.63415878     0.44620
H866        H  0.59072824  0.12199938  0.81923942     0.43350
H867        H  0.46914446  0.99750384  0.85776837     0.43480
H868        H  0.44940054  0.97209769  0.65544258     0.43840
O869        O  0.52113022  0.30642270  0.90189215    -0.75030
O870        O  0.46778754  0.30374026  0.89758139    -0.53940
C871        C  0.49541363  0.30555538  0.88497675     0.78700
O872        O  0.57284061  0.19482850  0.97300564    -0.59630
O873        O  0.58233078  0.21466659  0.02245739    -0.52660
C874        C  0.58937215  0.19705507  0.99848858     0.70710
O875        O  0.50301438  0.21613476  0.89594139    -0.74190
O876        O  0.45579211  0.24207600  0.89288956    -0.54750
C877        C  0.47812955  0.22538123  0.88100677     0.76720
O878        O  0.59016617  0.30432121  0.97956182    -0.59330
O879        O  0.59122292  0.27839412  0.02721835    -0.52450
C880        C  0.60501875  0.29233458  0.00375011     0.73310
Zr881      Zr  0.53488094  0.30925125  0.95943140     2.54710
O882        O  0.57301090  0.33881143  0.92761854    -0.79900
O883        O  0.52576199  0.36521035  0.97063960    -0.93320
Zr884      Zr  0.52566159  0.21518803  0.94860108     2.64680
O885        O  0.56632801  0.20927648  0.90807695    -0.98270
O886        O  0.51376571  0.15870245  0.94462526    -0.80330
O887        O  0.51019521  0.26639708  0.93296674    -0.83690
O888        O  0.55142383  0.25749796  0.97471868    -2.18400
O889        O  0.48599921  0.30020812  0.08011704    -0.67080
O890        O  0.53576162  0.27916518  0.08057035    -0.51640
C891        C  0.51081173  0.28927626  0.09473343     0.71690
O892        O  0.40921372  0.21149330  0.98619984    -0.59990
O893        O  0.40770367  0.23896378  0.93950427    -0.51960
C894        C  0.39551055  0.22067545  0.96049208     0.73490
O895        O  0.48010800  0.19550090  0.06346044    -0.71380
O896        O  0.52890623  0.21661426  0.07375897    -0.50060
C897        C  0.50450058  0.19983356  0.08131974     0.74880
O898        O  0.40953696  0.29972363  0.00796735    -0.66710
O899        O  0.40848111  0.30120418  0.95436810    -0.53910
C900        C  0.39410996  0.29949102  0.98116394     0.73260
Zr901      Zr  0.46650843  0.30669766  0.02433103     2.77540
O902        O  0.43118566  0.33393652  0.06100408    -0.97460
O903        O  0.47452650  0.36356329  0.01746400    -0.78280
Zr904      Zr  0.46034680  0.21245259  0.01214765     2.70070
O905        O  0.41807621  0.20012267  0.04939887    -0.79530
O906        O  0.46303552  0.15636702  0.99847252    -0.98610
Zr907      Zr  0.45519231  0.27019735  0.94261185     2.21500
Zr908      Zr  0.53947367  0.25259908  0.02980235     2.11130
O909        O  0.48373839  0.25529310  0.03947130    -2.47300
O910        O  0.44324879  0.26349296  0.99717769    -0.79320
O911        O  0.52268944  0.30491055  0.01483487    -0.71520
O912        O  0.47088406  0.21771673  0.95750268    -2.32470
O913        O  0.47910599  0.31452292  0.96930544    -2.28680
O914        O  0.51537363  0.20836319  0.00337342    -0.73280
H915        H  0.57337280  0.25368462  0.96991880     0.78720
H916        H  0.45987336  0.20163513  0.94533108     0.79810
H917        H  0.47767288  0.25127771  0.06108189     0.82030
H918        H  0.47075636  0.33427198  0.96117472     0.79640
H919        H  0.50081753  0.15661982  0.92506598     0.42680
H920        H  0.47881180  0.14743415  0.01345201     0.41650
H921        H  0.41261578  0.22086310  0.05899455     0.41320
H922        H  0.42321073  0.31706124  0.07531712     0.39260
H923        H  0.49156443  0.36899483  0.03277827     0.42390
H924        H  0.52257784  0.37512267  0.94953087     0.37170
H925        H  0.58446162  0.32239172  0.91536913     0.43290
H926        H  0.58463991  0.22177262  0.91597546     0.39710
H927        H  0.44510329  0.34721014  0.07459769     0.44620
H928        H  0.54652927  0.37337809  0.97805658     0.43350
H929        H  0.57317981  0.18685173  0.90958894     0.43480
H930        H  0.44250557  0.14750892  0.00562307     0.43840
O931        O  0.50061100  0.92718565  0.17306195    -0.75030
O932        O  0.54625177  0.91891089  0.20119808    -0.53940
C933        C  0.52465614  0.91052399  0.18158403     0.78700
O934        O  0.52597583  0.09462742  0.17523632    -0.59630
O935        O  0.47636620  0.10139141  0.19532995    -0.52660
C936        C  0.50086914  0.11102247  0.17984984     0.70710
O937        O  0.58252243  0.00427779  0.16049956    -0.74190
O938        O  0.59232226  0.96199257  0.19296991    -0.54750
C939        C  0.59710529  0.97853639  0.16790921     0.76720
O940        O  0.42319520  0.99734689  0.19252538    -0.59330
O941        O  0.42584860  0.05041080  0.19067892    -0.52450
C942        C  0.41369819  0.02395319  0.18177267     0.73310
Zr943      Zr  0.47582258  0.97835436  0.18175121     2.54710
O944        O  0.47722464  0.99302006  0.12576721    -0.79900
O945        O  0.43710589  0.94168128  0.15904540    -0.93320
Zr946      Zr  0.54347426  0.04073286  0.18135614     2.64680
O947        O  0.53669947  0.04597308  0.12404634    -0.98270
O948        O  0.59207257  0.07184891  0.17829965    -0.80330
O949        O  0.53084067  0.98635189  0.18254607    -0.83690
O950        O  0.48812916  0.03316031  0.18003549    -2.18400
O951        O  0.41896033  0.99463093  0.26480756    -0.67080
O952        O  0.41805105  0.04767534  0.25559207    -0.51640
C953        C  0.40380999  0.02079833  0.25871317     0.71690
O954        O  0.59974481  0.02377367  0.27739017    -0.59990
O955        O  0.60095436  0.97293497  0.25902118    -0.51960
C956        C  0.61474288  0.99811105  0.26949671     0.73490
O957        O  0.52965767  0.10018530  0.26550237    -0.71380
O958        O  0.47654480  0.10309624  0.25857055    -0.50060
C959        C  0.50382413  0.11636431  0.26137139     0.74880
O960        O  0.49179557  0.92046136  0.27679825    -0.66710
O961        O  0.54424821  0.92152000  0.26670061    -0.53910
C962        C  0.51823258  0.90621522  0.27014022     0.73260
Zr963      Zr  0.47468512  0.97773063  0.27695455     2.77540
O964        O  0.47973951  0.99083900  0.33309929    -0.97460
O965        O  0.43704102  0.94429344  0.30533775    -0.78280
Zr966      Zr  0.54410486  0.04352196  0.27627369     2.70070
O967        O  0.53106880  0.03952242  0.33244140    -0.79530
O968        O  0.58020053  0.07821573  0.30547407    -0.98610
Zr969      Zr  0.55085585  0.96633101  0.23163930     2.21500
Zr970      Zr  0.46827428  0.05491286  0.22875881     2.11130
O971        O  0.48799222  0.03346026  0.27782959    -2.47300
O972        O  0.53070308  0.98813339  0.27966662    -0.79320
O973        O  0.45579619  0.99996876  0.22916656    -0.71520
O974        O  0.56507763  0.02093260  0.22872182    -2.32470
O975        O  0.49518620  0.95594777  0.22915346    -2.28680
O976        O  0.52367257  0.06383834  0.22826267    -0.73280
H977        H  0.47893022  0.04344239  0.16169225     0.78720
H978        H  0.58729007  0.02442408  0.22477553     0.79810
H979        H  0.47821984  0.04405754  0.29562783     0.82030
H980        H  0.48894681  0.93416197  0.22644309     0.79640
H981        H  0.59233626  0.08444588  0.19817112     0.42680
H982        H  0.59067429  0.09122253  0.28892504     0.41650
H983        H  0.54558713  0.02303399  0.34074889     0.41320
H984        H  0.45799602  0.99631921  0.33990287     0.39260
H985        H  0.42638154  0.93169698  0.28852189     0.42390
H986        H  0.43653784  0.92348519  0.17394930     0.37170
H987        H  0.49726792  0.98381082  0.11786408     0.43290
H988        H  0.51865129  0.06067683  0.12117579     0.39710
H989        H  0.48431661  0.97034816  0.34368785     0.44620
H990        H  0.44713785  0.93320418  0.13958321     0.43350
H991        H  0.55542414  0.05831662  0.11706001     0.43480
H992        H  0.56642944  0.09331468  0.31697866     0.43840
O993        O  0.35520067  0.96114498  0.98101615    -0.75030
O994        O  0.32482641  0.94550463  0.02301758    -0.53940
C995        C  0.34985213  0.94437017  0.00606992     0.78700
O996        O  0.31396650  0.11575483  0.98288772    -0.59630
O997        O  0.29137511  0.11492468  0.93366815    -0.52660
C998        C  0.30632599  0.12871457  0.95633920     0.70710
O999        O  0.33591838  0.04164958  0.05594786    -0.74190
O1000       O  0.31632958  0.99237971  0.06648245    -0.54750
C1001       C  0.33402029  0.01647007  0.07281887     0.76720
O1002       O  0.33849337  0.02891402  0.89856513    -0.59330
O1003       O  0.30289018  0.06896108  0.89029106    -0.52450
C1004       C  0.32751166  0.05283155  0.88314489     0.73310
Zr1005     Zr  0.32755079  0.99811909  0.94591833     2.54710
O1006       O  0.38451656  0.00369346  0.93899597    -0.79900
O1007       O  0.32839173  0.95398379  0.90853278    -0.93320
Zr1008     Zr  0.31473049  0.06479150  0.00882503     2.64680
O1009       O  0.37129314  0.07502783  0.00329150    -0.98270
O1010       O  0.31117985  0.10467925  0.05051064    -0.80330
O1011       O  0.32518670  0.01064685  0.00034632    -0.83690
O1012       O  0.31771565  0.05265579  0.95471579    -2.18400
O1013       O  0.24321532  0.99558597  0.88757941    -0.67080
O1014       O  0.23943125  0.04901632  0.88482607    -0.51640
C1015       C  0.24244125  0.02181910  0.87139580     0.71690
O1016       O  0.22495583  0.02954119  0.06719820    -0.59990
O1017       O  0.25024715  0.98199467  0.06957730    -0.51960
C1018       C  0.23680021  0.00579732  0.08289401     0.73490
O1019       O  0.22543697  0.10503852  0.99581961    -0.71380
O1020       O  0.23038913  0.10778526  0.94248828    -0.50060
C1021       C  0.22742336  0.12132532  0.96969221     0.74880
O1022       O  0.24311537  0.92522933  0.96555912    -0.66710
O1023       O  0.26253880  0.92753303  0.01606398    -0.53910
C1024       C  0.25333947  0.91190931  0.99139348     0.73260
Zr1025     Zr  0.23510585  0.97985823  0.94439552     2.77540
O1026       O  0.17739511  0.97762815  0.94521012    -0.97460
O1027       O  0.21590069  0.93897847  0.90817029    -0.78280
Zr1028     Zr  0.22191515  0.04755074  0.01062024     2.70070
O1029       O  0.16719294  0.03508378  0.99694582    -0.79530
O1030       O  0.18631531  0.07712936  0.04510114    -0.98610
Zr1031     Zr  0.28154271  0.98168988  0.02173069     2.21500
Zr1032     Zr  0.26628504  0.06366140  0.93347730     2.11130
O1033       O  0.22229480  0.03458927  0.95481509    -2.47300
O1034       O  0.23024865  0.99215807  0.00006677    -0.79320
O1035       O  0.27772175  0.00940759  0.92315226    -0.71520
O1036       O  0.27281225  0.03647557  0.03235247    -2.32470
O1037       O  0.28569442  0.96796523  0.96687421    -2.28680
O1038       O  0.26456395  0.07573862  0.98823168    -0.73280
H1039       H  0.33398681  0.06580719  0.94538138     0.78720
H1040       H  0.27532431  0.04205105  0.05442717     0.79810
H1041       H  0.20295022  0.04108404  0.94439704     0.82030
H1042       H  0.29306825  0.94658314  0.96352620     0.79640
H1043       H  0.28877478  0.10388774  0.05737326     0.42680
H1044       H  0.20029743  0.09198165  0.05687759     0.41650
H1045       H  0.16015039  0.02041657  0.01392612     0.41320
H1046       H  0.17161243  0.97964411  0.96788127     0.39260
H1047       H  0.23528169  0.93010056  0.89843092     0.42390
H1048       H  0.34280101  0.93824732  0.91836157     0.37170
H1049       H  0.39050215  0.02144412  0.95325388     0.43290
H1050       H  0.37311437  0.08968776  0.98498598     0.39710
H1051       H  0.16998825  0.99749958  0.93510778     0.44620
H1052       H  0.34024093  0.96218487  0.88998142     0.43350
H1053       H  0.37683454  0.08822177  0.02198930     0.43480
H1054       H  0.17385428  0.09090111  0.03067711     0.43840
O1055       O  0.68275928  0.01142979  0.06339561    -0.75030
O1056       O  0.71652512  0.97037184  0.07353995    -0.53940
C1057       C  0.69055299  0.98537338  0.07737658     0.78700
O1058       O  0.72813414  0.01706511  0.90500726    -0.59630
O1059       O  0.72350096  0.06973300  0.91049561    -0.52660
C1060       C  0.71695655  0.04366917  0.89615770     0.70710
O1061       O  0.69495550  0.95830252  0.99594383    -0.74190
O1062       O  0.73145001  0.93118921  0.02223493    -0.54750
C1063       C  0.70771912  0.93196874  0.00338259     0.76720
O1064       O  0.70733885  0.10772520  0.01782146    -0.59330
O1065       O  0.71430327  0.11298813  0.96506839    -0.52450
C1066       C  0.70119448  0.12116829  0.99138111     0.73310
Zr1067     Zr  0.70233414  0.05128548  0.02618243     2.54710
O1068       O  0.64830908  0.05460954  0.00596328    -0.79900
O1069       O  0.68034734  0.07827405  0.07231707    -0.93320
Zr1070     Zr  0.71594454  0.99279761  0.95544268     2.64680
O1071       O  0.66185984  0.99243218  0.93496418    -0.98270
O1072       O  0.72179830  0.94572446  0.92235254    -0.80330
O1073       O  0.71064618  0.99855209  0.01094476    -0.83690
O1074       O  0.70749422  0.04645685  0.97020715    -2.18400
O1075       O  0.78330444  0.11841429  0.02379490    -0.67080
O1076       O  0.78168882  0.12285053  0.97017701    -0.51640
C1077       C  0.78097640  0.13525416  0.99796264     0.71690
O1078       O  0.81224108  0.94227192  0.98025806    -0.59990
O1079       O  0.79602164  0.93775345  0.03124386    -0.51960
C1080       C  0.80459678  0.92526829  0.00483999     0.73490
O1081       O  0.80160379  0.01908878  0.91027245    -0.71380
O1082       O  0.78803968  0.07117698  0.90989870    -0.50060
C1083       C  0.79506849  0.04530799  0.89532176     0.74880
O1084       O  0.79230083  0.03855655  0.09269518    -0.66710
O1085       O  0.77880030  0.98623127  0.08962267    -0.53910
C1086       C  0.78546041  0.01143016  0.10565045     0.73260
Zr1087     Zr  0.79553322  0.06168077  0.03818212     2.77540
O1088       O  0.85321298  0.06450287  0.03685125    -0.97460
O1089       O  0.81367061  0.09877909  0.07876369    -0.78280
Zr1090     Zr  0.80955752  0.00018637  0.96621893     2.70070
O1091       O  0.86358939  0.01751994  0.97698407    -0.79530
O1092       O  0.84559923  0.97153723  0.93141546    -0.98610
Zr1093     Zr  0.75783985  0.98003890  0.03623702     2.21500
Zr1094     Zr  0.75599134  0.07366056  0.95749854     2.11130
O1095       O  0.80400054  0.05492742  0.98205081    -2.47300
O1096       O  0.80542769  0.00754780  0.02269490    -0.79320
O1097       O  0.74897649  0.07932179  0.01308370    -0.71520
O1098       O  0.76206082  0.97263829  0.97981300    -2.32470
O1099       O  0.74825219  0.03357073  0.05240963    -2.28680
O1100       O  0.76282263  0.01993798  0.94312735    -0.73280
H1101       H  0.68942389  0.05537154  0.95930630     0.78720
H1102       H  0.76081239  0.95082549  0.97301315     0.79810
H1103       H  0.82170590  0.06746805  0.97469276     0.82030
H1104       H  0.74169198  0.03542785  0.07424105     0.79640
H1105       H  0.74256054  0.94857351  0.91183260     0.42680
H1106       H  0.83159892  0.96021192  0.91622614     0.41650
H1107       H  0.87277991  0.00022290  0.98999244     0.41320
H1108       H  0.86033355  0.04215818  0.03581851     0.39260
H1109       H  0.79401992  0.10646005  0.08896864     0.42390
H1110       H  0.69191113  0.06938374  0.09078809     0.37170
H1111       H  0.64188006  0.03222098  0.00261782     0.43290
H1112       H  0.65482353  0.01480620  0.93602646     0.39710
H1113       H  0.85873203  0.07371271  0.01595203     0.44620
H1114       H  0.65850272  0.06989415  0.07434023     0.43350
H1115       H  0.66411586  0.98806817  0.91196252     0.43480
H1116       H  0.85618605  0.98808665  0.91849652     0.43840
O1117       O  0.02107548  0.86406631  0.54291927    -0.75030
O1118       O  0.99466099  0.82933942  0.57383541    -0.53940
C1119       C  0.01029272  0.85514603  0.56985347     0.78700
O1120       O  0.99586130  0.80216122  0.39844600    -0.59630
O1121       O  0.04863339  0.80233113  0.39271853    -0.52660
C1122       C  0.02061662  0.80819586  0.38223321     0.70710
O1123       O  0.93860705  0.83747348  0.47799302    -0.74190
O1124       O  0.93919907  0.82390526  0.53060108    -0.54750
C1125       C  0.92727240  0.83743442  0.50612225     0.76720
O1126       O  0.09661042  0.84990727  0.47040900    -0.59330
O1127       O  0.10325623  0.81354786  0.43072567    -0.52450
C1128       C  0.10989509  0.83970029  0.44502682     0.73310
Zr1129     Zr  0.05661291  0.83545903  0.50866452     2.54710
O1130       O  0.06971146  0.89179114  0.50983860    -0.79900
O1131       O  0.09781035  0.83365171  0.54933607    -0.93320
Zr1132     Zr  0.98607020  0.82237656  0.45075836     2.64680
O1133       O  0.99951514  0.87718671  0.43784538    -0.98270
O1134       O  0.94224785  0.83676004  0.41591168    -0.80330
O1135       O  0.00083881  0.83308375  0.50363812    -0.83690
O1136       O  0.04125850  0.82644495  0.45535623    -2.18400
O1137       O  0.11442417  0.75108143  0.50669621    -0.67080
O1138       O  0.11412900  0.75307275  0.45270924    -0.51640
C1139       C  0.12888109  0.75286858  0.47960311     0.71690
O1140       O  0.93248992  0.73230492  0.49009216    -0.59990
O1141       O  0.93304504  0.76052610  0.53636851    -0.51960
C1142       C  0.91823804  0.74586988  0.51386669     0.73490
O1143       O  0.99728269  0.73096024  0.40880904    -0.71380
O1144       O  0.05001488  0.73626934  0.40125928    -0.50060
C1145       C  0.02177829  0.73282675  0.39024993     0.74880
O1146       O  0.04513744  0.75151974  0.58439572    -0.66710
O1147       O  0.99381505  0.76763869  0.58729557    -0.53910
C1148       C  0.02059958  0.76093290  0.60035091     0.73260
Zr1149     Zr  0.05980803  0.74291010  0.52739364     2.77540
O1150       O  0.05617036  0.68524366  0.52494209    -0.97460
O1151       O  0.09937399  0.72245396  0.56433030    -0.78280
Zr1152     Zr  0.98741519  0.72911551  0.46754725     2.70070
O1153       O  0.00263146  0.67514385  0.48146585    -0.79530
O1154       O  0.95087239  0.69237713  0.44162287    -0.98610
Zr1155     Zr  0.98341630  0.78883824  0.53481548     2.21500
Zr1156     Zr  0.06190689  0.77519094  0.44200862     2.11130
O1157       O  0.04417396  0.73089188  0.47366357    -2.47300
O1158       O  0.00340737  0.73753650  0.52172442    -0.79320
O1159       O  0.07740807  0.78564386  0.49527343    -0.71520
O1160       O  0.96721009  0.77993790  0.48127276    -2.32470
O1161       O  0.03949368  0.79350481  0.54129878    -2.28680
O1162       O  0.00597117  0.77220288  0.43711358    -0.73280
H1163       H  0.04818379  0.84283428  0.44091175     0.78720
H1164       H  0.94491586  0.78200474  0.47714251     0.79810
H1165       H  0.05387816  0.71149938  0.46629995     0.82030
H1166       H  0.04581669  0.80062392  0.56213578     0.79640
H1167       H  0.93015484  0.81677081  0.41303702     0.42680
H1168       H  0.93823897  0.70580357  0.42701718     0.41650
H1169       H  0.98956094  0.66996652  0.50027420     0.41320
H1170       H  0.07798726  0.67809850  0.52023681     0.39260
H1171       H  0.11009235  0.74159981  0.57288322     0.42390
H1172       H  0.08819768  0.84370912  0.56823761     0.37170
H1173       H  0.05595022  0.90133753  0.49331436     0.43290
H1174       H  0.99906207  0.87796814  0.41432333     0.39710
H1175       H  0.05238809  0.67852227  0.54716259     0.44620
H1176       H  0.11395667  0.84910823  0.54207189     0.43350
H1177       H  0.98075458  0.88956139  0.44448660     0.43480
H1178       H  0.96421995  0.67928894  0.42745897     0.43840
O1179       O  0.83544858  0.02454046  0.42080264    -0.75030
O1180       O  0.81420934  0.97454969  0.42106951    -0.53940
C1181       C  0.83243419  0.99603567  0.40990354     0.78700
O1182       O  0.83301697  0.03874005  0.58051619    -0.59630
O1183       O  0.79917679  0.08092299  0.58149965    -0.52660
C1184       C  0.82350217  0.06561490  0.59122327     0.70710
O1185       O  0.84175506  0.95454724  0.51768525    -0.74190
O1186       O  0.81650319  0.93554239  0.47374762    -0.54750
C1187       C  0.83787118  0.93425662  0.49556133     0.76720
O1188       O  0.82554393  0.10716383  0.49047496    -0.59330
O1189       O  0.79480273  0.11632210  0.53428826    -0.52450
C1190       C  0.81752767  0.12296353  0.51533030     0.73310
Zr1191     Zr  0.81463328  0.05709588  0.46444464     2.54710
O1192       O  0.87177769  0.06477685  0.46290020    -0.79900
O1193       O  0.80713478  0.09390467  0.42041934    -0.93320
Zr1194     Zr  0.81947073  0.00110996  0.53900334     2.64680
O1195       O  0.87707789  0.00418462  0.54162431    -0.98270
O1196       O  0.81815004  0.96745503  0.58603086    -0.80330
O1197       O  0.82111893  0.00466439  0.48286844    -0.83690
O1198       O  0.81369149  0.05268470  0.52028088    -2.18400
O1199       O  0.72723138  0.10566817  0.47203063    -0.67080
O1200       O  0.72829610  0.11265389  0.52506301    -0.51640
C1201       C  0.72816013  0.12407328  0.49682174     0.71690
O1202       O  0.73369136  0.92824557  0.52194570    -0.59990
O1203       O  0.75010117  0.92571269  0.47070660    -0.51960
C1204       C  0.74259901  0.91239122  0.49701446     0.73490
O1205       O  0.73514275  0.00626121  0.59129027    -0.71380
O1206       O  0.73858760  0.06002207  0.59075870    -0.50060
C1207       C  0.73773858  0.03333899  0.60579612     0.74880
O1208       O  0.72415473  0.02212843  0.40900536    -0.66710
O1209       O  0.75040047  0.97490743  0.41140282    -0.53910
C1210       C  0.73648041  0.99725036  0.39580767     0.73260
Zr1211     Zr  0.72111043  0.04692771  0.46256274     2.77540
O1212       O  0.66423262  0.04012771  0.46990918    -0.97460
O1213       O  0.69064775  0.07637032  0.42319992    -0.78280
Zr1214     Zr  0.72653282  0.98592533  0.53622779     2.70070
O1215       O  0.66936015  0.99153020  0.53117970    -0.79530
O1216       O  0.70061245  0.94992978  0.57340344    -0.98610
Zr1217     Zr  0.77661501  0.97566737  0.46306421     2.21500
Zr1218     Zr  0.76291565  0.06930518  0.53888169     2.11130
O1219       O  0.71803342  0.04009067  0.51930565    -2.47300
O1220       O  0.72519396  0.99237132  0.47958997    -0.79320
O1221       O  0.76501547  0.07525902  0.48264163    -0.71520
O1222       O  0.77746981  0.96963494  0.51933331    -2.32470
O1223       O  0.77143893  0.02887743  0.44441152    -2.28680
O1224       O  0.76938459  0.01634269  0.55618652    -0.73280
H1225       H  0.83113793  0.06478478  0.52884652     0.78720
H1226       H  0.78303366  0.94857197  0.52630374     0.79810
H1227       H  0.69878095  0.04870442  0.52808747     0.82030
H1228       H  0.77535326  0.03149141  0.42203977     0.79640
H1229       H  0.83871046  0.95619090  0.58587535     0.42680
H1230       H  0.71796539  0.94184183  0.58705933     0.41650
H1231       H  0.66257971  0.97250450  0.51908434     0.41320
H1232       H  0.66133843  0.01733141  0.47482313     0.39260
H1233       H  0.70672558  0.08808342  0.41070171     0.42390
H1234       H  0.80383672  0.08024147  0.40153855     0.37170
H1235       H  0.88014226  0.04950933  0.47871907     0.43290
H1236       H  0.88207926  0.02706522  0.53939550     0.39710
H1237       H  0.65891841  0.05143874  0.48978887     0.44620
H1238       H  0.82830409  0.10353939  0.41717280     0.43350
H1239       H  0.88246030  0.99906817  0.56396641     0.43480
H1240       H  0.68800695  0.96372688  0.58758118     0.43840
O1241       O  0.19295618  0.94816771  0.47434145    -0.75030
O1242       O  0.22311513  0.94092799  0.42989368    -0.53940
C1243       C  0.19980658  0.93421415  0.44800203     0.78700
O1244       O  0.18874454  0.10068875  0.47501524    -0.59630
O1245       O  0.21686324  0.11148439  0.52004853    -0.52660
C1246       C  0.19410759  0.11654203  0.50027352     0.70710
O1247       O  0.18998426  0.01160133  0.41401197    -0.74190
O1248       O  0.22766214  0.98951723  0.38505807    -0.54750
C1249       C  0.20178958  0.00488723  0.38701147     0.76720
O1250       O  0.22344002  0.00722009  0.56320239    -0.59330
O1251       O  0.22123698  0.06045425  0.56358627    -0.52450
C1252       C  0.21299959  0.03326790  0.57442826     0.73310
Zr1253     Zr  0.21220186  0.99044469  0.50933403     2.54710
O1254       O  0.15654792  0.00176144  0.51930597    -0.79900
O1255       O  0.20282492  0.94412296  0.54273039    -0.93320
Zr1256     Zr  0.20715774  0.05672967  0.44486788     2.64680
O1257       O  0.14991874  0.06250815  0.43873637    -0.98270
O1258       O  0.21042426  0.09311751  0.39992877    -0.80330
O1259       O  0.21128636  0.00198694  0.45480407    -0.83690
O1260       O  0.20822545  0.04561524  0.49988254    -2.18400
O1261       O  0.29872299  0.00992808  0.56424618    -0.67080
O1262       O  0.28752280  0.06246518  0.56720351    -0.51640
C1263       C  0.29334179  0.03559432  0.58043105     0.71690
O1264       O  0.30040133  0.04539054  0.38490022    -0.59990
O1265       O  0.29125601  0.99233921  0.38481411    -0.51960
C1266       C  0.29484872  0.01885771  0.37021170     0.73490
O1267       O  0.28824528  0.11877617  0.45766660    -0.71380
O1268       O  0.28174394  0.11996837  0.51105579    -0.50060
C1269       C  0.28368354  0.13401082  0.48402483     0.74880
O1270       O  0.30747094  0.93780429  0.48910131    -0.66710
O1271       O  0.28990010  0.93555324  0.43802989    -0.53910
C1272       C  0.29941036  0.92209816  0.46377033     0.73260
Zr1273     Zr  0.30654289  0.99425139  0.50747742     2.77540
O1274       O  0.36309980  0.00430969  0.50136852    -0.97460
O1275       O  0.33677040  0.96124107  0.54407885    -0.78280
Zr1276     Zr  0.30132066  0.06331074  0.44148919     2.70070
O1277       O  0.35792151  0.06304995  0.45272349    -0.79530
O1278       O  0.32746190  0.10013963  0.40529329    -0.98610
Zr1279     Zr  0.25979428  0.98403533  0.43193822     2.21500
Zr1280     Zr  0.25626217  0.06922664  0.51954056     2.11130
O1281       O  0.30509318  0.05062566  0.49709050    -2.47300
O1282       O  0.30731516  0.00743932  0.45199015    -0.79320
O1283       O  0.25917232  0.01367757  0.52929143    -0.71520
O1284       O  0.25425256  0.03968732  0.42103478    -2.32470
O1285       O  0.25899202  0.97056804  0.48707740    -2.28680
O1286       O  0.25348050  0.08119089  0.46458422    -0.73280
H1287       H  0.18962757  0.05355279  0.51051330     0.78720
H1288       H  0.24962368  0.04459060  0.39915214     0.79810
H1289       H  0.32274132  0.06151198  0.50693968     0.82030
H1290       H  0.25549423  0.94831415  0.49112327     0.79640
H1291       H  0.22491901  0.11016151  0.40724191     0.42680
H1292       H  0.30996531  0.11219811  0.39526492     0.41650
H1293       H  0.36721604  0.05073005  0.43503186     0.41320
H1294       H  0.36676375  0.00456183  0.47815370     0.39260
H1295       H  0.32074313  0.94753327  0.55444871     0.42390
H1296       H  0.21518154  0.92684829  0.53277400     0.37170
H1297       H  0.14711842  0.00425403  0.49787206     0.43290
H1298       H  0.14130030  0.06040464  0.46049932     0.39710
H1299       H  0.36657040  0.02648480  0.50835763     0.44620
H1300       H  0.18040561  0.93830976  0.53878106     0.43350
H1301       H  0.14640797  0.08503033  0.43295637     0.43480
H1302       H  0.33835331  0.11579853  0.41910832     0.43840
O1303       O  0.91520935  0.29707898  0.45780934    -0.75030
O1304       O  0.91120615  0.30332496  0.51093906    -0.53940
C1305       C  0.89843751  0.29885406  0.48359182     0.78700
O1306       O  0.00784230  0.18579391  0.42653964    -0.59630
O1307       O  0.05067202  0.21545886  0.41167806    -0.52660
C1308       C  0.03309464  0.19075640  0.41006294     0.70710
O1309       O  0.92698827  0.20385732  0.49546729    -0.74190
O1310       O  0.91558503  0.24073331  0.53354639    -0.54750
C1311       C  0.91074091  0.21446760  0.51895538     0.76720
O1312       O  0.99401430  0.29684527  0.38939426    -0.59330
O1313       O  0.04388802  0.27625165  0.39211986    -0.52450
C1314       C  0.01943529  0.28578048  0.37630343     0.73310
Zr1315     Zr  0.97228941  0.30612751  0.44338680     2.54710
O1316       O  0.93726326  0.32509436  0.40141972    -0.79900
O1317       O  0.97296649  0.36393833  0.44003201    -0.93320
Zr1318     Zr  0.97300540  0.21420513  0.46313306     2.64680
O1319       O  0.93530700  0.21362148  0.41918034    -0.98270
O1320       O  0.96469927  0.15716227  0.46762415    -0.80330
O1321       O  0.95019821  0.26418476  0.47315901    -0.83690
O1322       O  0.99487817  0.25532436  0.43286281    -2.18400
O1323       O  0.09449690  0.31594499  0.49566435    -0.67080
O1324       O  0.09742368  0.29059889  0.44804729    -0.51640
C1325       C  0.11043591  0.30368092  0.47235687     0.71690
O1326       O  0.01296143  0.24744199  0.58136522    -0.59990
O1327       O  0.96005027  0.24914809  0.57754273    -0.51960
C1328       C  0.98539167  0.24200140  0.59263799     0.73490
O1329       O  0.08111410  0.20647523  0.51162664    -0.71380
O1330       O  0.09259809  0.22319995  0.46132867    -0.50060
C1331       C  0.09784662  0.20660134  0.48650771     0.74880
O1332       O  0.02120500  0.31945730  0.56912763    -0.66710
O1333       O  0.96791629  0.31453108  0.57066315    -0.53910
C1334       C  0.99478347  0.31772098  0.58484566     0.73260
Zr1335     Zr  0.03757149  0.32073666  0.51186279     2.77540
O1336       O  0.06948249  0.35750182  0.54335116    -0.97460
O1337       O  0.02599003  0.37505803  0.49592989    -0.78280
Zr1338     Zr  0.03369105  0.22852453  0.53162170     2.70070
O1339       O  0.07396798  0.22130354  0.57249667    -0.79530
O1340       O  0.01825386  0.17466308  0.54622300    -0.98610
Zr1341     Zr  0.95918854  0.27702287  0.52753484     2.21500
Zr1342     Zr  0.04948420  0.25925265  0.44747974     2.11130
O1343       O  0.05886690  0.26916250  0.50255922    -2.47300
O1344       O  0.01367132  0.27924569  0.54043155    -0.79320
O1345       O  0.02780450  0.31092944  0.45647225    -0.71520
O1346       O  0.98032001  0.22504636  0.51789225    -2.32470
O1347       O  0.98200084  0.32015989  0.49801834    -2.28680
O1348       O  0.02694492  0.21659567  0.47725156    -0.73280
H1349       H  0.99162639  0.24731855  0.41164156     0.78720
H1350       H  0.97106366  0.20900966  0.53139139     0.79810
H1351       H  0.08061623  0.26638717  0.50899146     0.82030
H1352       H  0.97184242  0.33981309  0.50387158     0.79640
H1353       H  0.97495547  0.15136537  0.48800707     0.42680
H1354       H  0.02845113  0.16102505  0.53007217     0.41650
H1355       H  0.08375396  0.24256904  0.57492862     0.41320
H1356       H  0.08423107  0.34377166  0.55545743     0.39260
H1357       H  0.04258616  0.38027998  0.48017893     0.42390
H1358       H  0.99561916  0.36992439  0.44122638     0.37170
H1359       H  0.92728809  0.30564498  0.39265925     0.43290
H1360       H  0.94536851  0.20013734  0.40281486     0.39710
H1361       H  0.08311679  0.36879782  0.52791051     0.44620
H1362       H  0.96355004  0.37182323  0.46001749     0.43350
H1363       H  0.91728403  0.20076694  0.42703864     0.43480
H1364       H  0.03005266  0.17026756  0.56611443     0.43840
O1365       O  0.03006034  0.92105217  0.21155249    -0.75030
O1366       O  0.97715229  0.91877011  0.21813416    -0.53940
C1367       C  0.00413711  0.90507409  0.21594423     0.78700
O1368       O  0.09737851  0.00324881  0.30483735    -0.59630
O1369       O  0.10163221  0.05083197  0.27915813    -0.52660
C1370       C  0.11231376  0.02858841  0.29683254     0.70710
O1371       O  0.03088170  0.92194669  0.29866177    -0.74190
O1372       O  0.97964112  0.91587978  0.28282907    -0.54750
C1373       C  0.00557297  0.90552275  0.29513554     0.76720
O1374       O  0.09877008  0.99856233  0.19908707    -0.59330
O1375       O  0.09998067  0.04914133  0.21816278    -0.52450
C1376       C  0.11387618  0.02410640  0.20761775     0.73310
Zr1377     Zr  0.04309155  0.97812974  0.20160082     2.54710
O1378       O  0.07736151  0.94417838  0.16996226    -0.79900
O1379       O  0.02651775  0.98431904  0.14645891    -0.93320
Zr1380     Zr  0.04720753  0.97634708  0.29685948     2.64680
O1381       O  0.08877456  0.93854286  0.31043906    -0.98270
O1382       O  0.03854410  0.98015081  0.35390712    -0.80330
O1383       O  0.02523359  0.95547767  0.24972949    -0.83690
O1384       O  0.06568666  0.99829044  0.24922019    -2.18400
O1385       O  0.99182152  0.09984090  0.20745094    -0.67080
O1386       O  0.04338822  0.10296917  0.22326819    -0.51640
C1387       C  0.01735539  0.11579950  0.21398343     0.71690
O1388       O  0.93321596  0.00875345  0.31729563    -0.59990
O1389       O  0.92777652  0.96147789  0.29121710    -0.51960
C1390       C  0.91926193  0.98222250  0.31179735     0.73490
O1391       O  0.01395793  0.07798452  0.32494700    -0.71380
O1392       O  0.05427786  0.09295411  0.29225816    -0.50060
C1393       C  0.03820999  0.09499919  0.31802838     0.74880
O1394       O  0.91929015  0.02565015  0.22021144    -0.66710
O1395       O  0.91859480  0.97233555  0.22794599    -0.53910
C1396       C  0.90434601  0.99916164  0.22525133     0.73260
Zr1397     Zr  0.97439858  0.04312388  0.20779450     2.77540
O1398       O  0.93441645  0.07574218  0.18161372    -0.97460
O1399       O  0.97700736  0.03266518  0.15096328    -0.78280
Zr1400     Zr  0.97965701  0.03843175  0.30183117     2.70070
O1401       O  0.94193862  0.08195574  0.29816739    -0.79530
O1402       O  0.97121075  0.03877906  0.35907847    -0.98610
Zr1403     Zr  0.96983382  0.96392803  0.25250157     2.21500
Zr1404     Zr  0.05266497  0.05334789  0.25057546     2.11130
O1405       O  0.99733668  0.06397792  0.25537081    -2.47300
O1406       O  0.95682678  0.01855872  0.25506584    -0.79320
O1407       O  0.03017555  0.03367987  0.20225808    -0.71520
O1408       O  0.99218552  0.98380415  0.30078274    -2.32470
O1409       O  0.98701825  0.98761499  0.20352383    -2.28680
O1410       O  0.03490924  0.03040326  0.29926109    -0.73280
H1411       H  0.08785844  0.99339532  0.25065005     0.78720
H1412       H  0.98414338  0.97275882  0.31920497     0.79810
H1413       H  0.99298510  0.08597356  0.25993298     0.82030
H1414       H  0.97618173  0.97792967  0.18571814     0.79640
H1415       H  0.03364762  0.95812861  0.36057759     0.42680
H1416       H  0.99224991  0.03410880  0.36841903     0.41650
H1417       H  0.92571323  0.07438321  0.28286729     0.41320
H1418       H  0.92752872  0.09102748  0.19806943     0.39260
H1419       H  0.99277541  0.04813059  0.14292224     0.42390
H1420       H  0.02222192  0.96243878  0.13894136     0.37170
H1421       H  0.09058077  0.93278785  0.18574060     0.43290
H1422       H  0.10559091  0.94195736  0.29443191     0.39710
H1423       H  0.94607700  0.08879060  0.16592521     0.44620
H1424       H  0.04594439  0.99091003  0.13507015     0.43350
H1425       H  0.09798227  0.94627883  0.33069584     0.43480
H1426       H  0.96715181  0.06127624  0.36453437     0.43840
O1427       O  0.00068169  0.96454928  0.66072561    -0.75030
O1428       O  0.05115454  0.95760690  0.67932903    -0.53940
C1429       C  0.02670652  0.94908809  0.66319925     0.78700
O1430       O  0.01925246  0.13070184  0.67045083    -0.59630
O1431       O  0.97444084  0.13399559  0.70037461    -0.52660
C1432       C  0.99459495  0.14523530  0.68060080     0.70710
O1433       O  0.08828334  0.05272609  0.65038532    -0.74190
O1434       O  0.09985132  0.00563459  0.67423756    -0.54750
C1435       C  0.10482927  0.02749435  0.65358480     0.76720
O1436       O  0.93148500  0.04579540  0.66874723    -0.59330
O1437       O  0.92925463  0.09008407  0.70014331    -0.52450
C1438       C  0.91894932  0.07201469  0.67798588     0.73310
Zr1439     Zr  0.97806614  0.01367328  0.67909088     2.54710
O1440       O  0.97233683  0.01340859  0.62150559    -0.79900
O1441       O  0.93413286  0.97659926  0.68515155    -0.93320
Zr1442     Zr  0.04342156  0.07900018  0.67289854     2.64680
O1443       O  0.02797344  0.07942902  0.61705433    -0.98270
O1444       O  0.08463959  0.11800887  0.66203700    -0.80330
O1445       O  0.03253277  0.02408439  0.67105333    -0.83690
O1446       O  0.98961544  0.06842762  0.67994762    -2.18400
O1447       O  0.93386841  0.02172006  0.76869469    -0.67080
O1448       O  0.92965786  0.07504246  0.76377222    -0.51640
C1449       C  0.91696885  0.04743597  0.76673601     0.71690
O1450       O  0.11369417  0.05551664  0.75948484    -0.59990
O1451       O  0.11257906  0.00588946  0.73787043    -0.51960
C1452       C  0.12755678  0.03027487  0.74857396     0.73490
O1453       O  0.04141220  0.13256249  0.75857700    -0.71380
O1454       O  0.98841477  0.13220983  0.76399430    -0.50060
C1455       C  0.01446667  0.14735391  0.76001189     0.74880
O1456       O  0.01232420  0.95177465  0.76933111    -0.66710
O1457       O  0.05986265  0.95217031  0.74408570    -0.53910
C1458       C  0.03704135  0.93750043  0.75787445     0.73260
Zr1459     Zr  0.99149172  0.00744368  0.77277257     2.77540
O1460       O  0.00004265  0.01430810  0.82968436    -0.97460
O1461       O  0.95940645  0.96990906  0.80279143    -0.78280
Zr1462     Zr  0.05843388  0.07582993  0.76641012     2.70070
O1463       O  0.05381608  0.07204687  0.82392887    -0.79530
O1464       O  0.09868921  0.11012413  0.79009197    -0.98610
Zr1465     Zr  0.06009372  0.00152063  0.71513207     2.21500
Zr1466     Zr  0.97609924  0.08635100  0.73194411     2.11130
O1467       O  0.00360143  0.06331392  0.77620447    -2.47300
O1468       O  0.04689555  0.01981550  0.76723230    -0.79320
O1469       O  0.96419399  0.03138863  0.72999345    -0.71520
O1470       O  0.07234934  0.05677597  0.71510941    -2.32470
O1471       O  0.00534781  0.98901157  0.72144249    -2.28680
O1472       O  0.03035375  0.09829680  0.72353012    -0.73280
H1473       H  0.97851553  0.07975283  0.66338898     0.78720
H1474       H  0.09393530  0.06145513  0.70934807     0.79810
H1475       H  0.99625007  0.07263820  0.79579042     0.82030
H1476       H  0.00053929  0.96681041  0.71876226     0.79640
H1477       H  0.09306917  0.12372509  0.68327502     0.42680
H1478       H  0.10676250  0.12301899  0.77215952     0.41650
H1479       H  0.07199369  0.05871118  0.83047037     0.41320
H1480       H  0.02297136  0.01866906  0.83202030     0.39260
H1481       H  0.94755783  0.95778104  0.78643291     0.42390
H1482       H  0.94191647  0.96055820  0.70049415     0.37170
H1483       H  0.99407495  0.01693420  0.61343865     0.43290
H1484       H  0.01167296  0.09621129  0.61533860     0.39710
H1485       H  0.98942769  0.03441490  0.83544214     0.44620
H1486       H  0.93304320  0.96517067  0.66461051     0.43350
H1487       H  0.04660319  0.08831670  0.60588322     0.43480
H1488       H  0.08684431  0.12537439  0.80341632     0.43840
C1489       C  0.01960720  0.27391355  0.21926969     0.00830
C1490       C  0.01785668  0.25079636  0.24196875     0.00830
C1491       C  0.74883678  0.00247644  0.23885817     0.00830
C1492       C  0.77122316  0.99924449  0.26209848     0.00830
C1493       C  0.00254349  0.75157614  0.23437034     0.00830
C1494       C  0.00578751  0.77321929  0.25829786     0.00830
C1495       C  0.27143221  0.01812426  0.21624040     0.00830
C1496       C  0.24888454  0.02124963  0.23927504     0.00830
C1497       C  0.26571779  0.28796000  0.48972190     0.00830
C1498       C  0.24234298  0.26587486  0.48601355     0.00830
C1499       C  0.74281504  0.28149063  0.49109071     0.00830
C1500       C  0.76529734  0.25825330  0.48722969     0.00830
C1501       C  0.28521219  0.76563295  0.47689239     0.00830
C1502       C  0.26267007  0.78881491  0.47472722     0.00830
C1503       C  0.28370052  0.02566137  0.73880356     0.00830
C1504       C  0.26154679  0.02828819  0.71517998     0.00830
C1505       C  0.23850933  0.27777743  0.97437715     0.00830
C1506       C  0.26211598  0.25572020  0.97642618     0.00830
C1507       C  0.26409072  0.75570115  0.99698252     0.00830
C1508       C  0.28754993  0.77786349  0.99343996     0.00830
C1509       C  0.51923171  0.75254841  0.24455468     0.00830
C1510       C  0.51783551  0.77569038  0.22168674     0.00830
C1511       C  0.50493825  0.27406551  0.25009157     0.00830
C1512       C  0.50640900  0.25093632  0.22733116     0.00830
C1513       C  0.51026890  0.29792764  0.72823383     0.00830
C1514       C  0.50805618  0.27440664  0.75052031     0.00830
C1515       C  0.99468130  0.30163556  0.74180358     0.00830
C1516       C  0.00054428  0.27962050  0.71856221     0.00830
C1517       C  0.74073491  0.26808744  0.99737772     0.00830
C1518       C  0.76258841  0.29189391  0.99307035     0.00830
C1519       C  0.27402598  0.52463084  0.24743785     0.00830
C1520       C  0.25019883  0.52147620  0.22567724     0.00830
C1521       C  0.77335590  0.50734149  0.22918132     0.00830
C1522       C  0.75104181  0.50212535  0.25221971     0.00830
C1523       C  0.27790202  0.51809187  0.72695840     0.00830
C1524       C  0.25432577  0.51851939  0.74912868     0.00830
C1525       C  0.03719697  0.77824382  0.75609112     0.00830
C1526       C  0.03464968  0.80114968  0.73312204     0.00830
C1527       C  0.75919732  0.03897936  0.76136718     0.00830
C1528       C  0.78134749  0.03826882  0.73776230     0.00830
C1529       C  0.78943390  0.76822393  0.99248262     0.00830
C1530       C  0.76715255  0.79179735  0.99258033     0.00830
C1531       C  0.78001449  0.54357939  0.75451590     0.00830
C1532       C  0.75712870  0.54042535  0.73149209     0.00830
C1533       C  0.76181107  0.75698034  0.49521191     0.00830
C1534       C  0.78411119  0.77998290  0.50136277     0.00830
C1535       C  0.53433913  0.79578145  0.74339811     0.00830
C1536       C  0.52930692  0.77274422  0.72083699     0.00830
C1537       C  0.86704119  0.01514414  0.75738122    -0.21040
C1538       C  0.88150514  0.04486322  0.76313490    -0.09090
C1539       C  0.86224227  0.07225457  0.76075145     0.29770
C1540       C  0.83008885  0.06983560  0.75216239    -0.21040
C1541       C  0.81611092  0.04026761  0.74555759    -0.09100
C1542       C  0.83481903  0.01283594  0.74877870     0.29780
F1543       F  0.82193841  0.98372516  0.74368393    -0.19620
H1544       H  0.88090173  0.99357688  0.75863846     0.18140
H1545       H  0.81600723  0.09123784  0.75043889     0.18150
F1546       F  0.87450318  0.10163054  0.76596819    -0.19610
C1547       C  0.98215545  0.19688940  0.75092721    -0.21040
C1548       C  0.01218383  0.18215598  0.75179377    -0.09090
C1549       C  0.03829194  0.19973119  0.74022281     0.29770
C1550       C  0.03418046  0.23071194  0.72805126    -0.21040
C1551       C  0.00410496  0.24504114  0.72712219    -0.09100
C1552       C  0.97813024  0.22765213  0.73871163     0.29780
F1553       F  0.94874758  0.24065982  0.73855077    -0.19620
H1554       H  0.96133191  0.18429116  0.75911471     0.18140
H1555       H  0.05467874  0.24375354  0.71973786     0.18150
F1556       F  0.06767160  0.18674615  0.73960040    -0.19610
C1557       C  0.21116180  0.05783768  0.72773061    -0.21040
C1558       C  0.22695053  0.02885311  0.72326332    -0.09090
C1559       C  0.21059473  0.00052168  0.72982784     0.29770
C1560       C  0.17892314  0.00121199  0.73992648    -0.21040
C1561       C  0.16276610  0.03020165  0.74408948    -0.09100
C1562       C  0.17952061  0.05862554  0.73804159     0.29780
F1563       F  0.16496852  0.08721045  0.74055946    -0.19620
H1564       H  0.22344377  0.08001201  0.72348676     0.18140
H1565       H  0.16677222  0.97888087  0.74389232     0.18150
F1566       F  0.22532821  0.97212253  0.72643347    -0.19610
C1567       C  0.01074693  0.88359523  0.76335396    -0.21040
C1568       C  0.03801972  0.90179379  0.75667762    -0.09090
C1569       C  0.06444546  0.88583004  0.74349506     0.29770
C1570       C  0.06289783  0.85341185  0.73600600    -0.21040
C1571       C  0.03538366  0.83572344  0.74170213    -0.09100
C1572       C  0.00942155  0.85097002  0.75603011     0.29780
F1573       F  0.98234628  0.83459229  0.76190012    -0.19620
H1574       H  0.98985722  0.89486508  0.77300595     0.18140
H1575       H  0.08331302  0.84203672  0.72545883     0.18150
F1576       F  0.09169125  0.90161303  0.73674314    -0.19610
C1577       C  0.16627644  0.05159704  0.21726958    -0.21040
C1578       C  0.14943802  0.02337060  0.21050880    -0.09090
C1579       C  0.16606266  0.99434759  0.21317477     0.29770
C1580       C  0.19799212  0.99382349  0.22304265    -0.21040
C1581       C  0.21425484  0.02201276  0.23061824    -0.09100
C1582       C  0.19814746  0.05098087  0.22706675     0.29780
F1583       F  0.21323986  0.07884444  0.23293388    -0.19620
H1584       H  0.15446158  0.07435246  0.21586993     0.18140
H1585       H  0.21006008  0.97124176  0.22506305     0.18150
F1586       F  0.15114404  0.96623327  0.20794759    -0.19610
C1587       C  0.97702465  0.85345824  0.22900193    -0.21040
C1588       C  0.00548225  0.87034050  0.22394264    -0.09090
C1589       C  0.03425403  0.85507266  0.23183406     0.29770
C1590       C  0.03420813  0.82421442  0.24477374    -0.21040
C1591       C  0.00566365  0.80786478  0.25016858    -0.09100
C1592       C  0.97708433  0.82274965  0.24183665     0.29780
F1593       F  0.94911736  0.80723274  0.24554497    -0.19620
H1594       H  0.95440173  0.86427202  0.22356146     0.18140
H1595       H  0.05655908  0.81285945  0.25025581     0.18150
F1596       F  0.06241874  0.87023031  0.22818596    -0.19610
C1597       C  0.82156967  0.02802999  0.24815221    -0.21040
C1598       C  0.80564625  0.99922781  0.25365310    -0.09090
C1599       C  0.82160539  0.97066927  0.24754248     0.29770
C1600       C  0.85306454  0.97095690  0.23700555    -0.21040
C1601       C  0.86947833  0.99972322  0.23193142    -0.09100
C1602       C  0.85306344  0.02842002  0.23738228     0.29780
F1603       F  0.86752702  0.05692245  0.23314904    -0.19620
H1604       H  0.80941396  0.05031598  0.25200135     0.18140
H1605       H  0.86471644  0.94840610  0.23319411     0.18150
F1606       F  0.80665743  0.94237533  0.25118555    -0.19610
C1607       C  0.98840531  0.19972848  0.23103464    -0.21040
C1608       C  0.01714157  0.21652578  0.23270254    -0.09090
C1609       C  0.04523480  0.20091804  0.22429554     0.29770
C1610       C  0.04475081  0.16876480  0.21572766    -0.21040
C1611       C  0.01621511  0.15129088  0.21520697    -0.09100
C1612       C  0.98781445  0.16747043  0.22232599     0.29780
F1613       F  0.95969955  0.15176138  0.22287728    -0.19620
H1614       H  0.96643420  0.21152477  0.23694919     0.18140
H1615       H  0.06704198  0.15717741  0.21064003     0.18150
F1616       F  0.07333622  0.21663602  0.22514095    -0.19610
C1617       C  0.97037387  0.29305847  0.66886029    -0.21040
C1618       C  0.99971656  0.28958552  0.68422481    -0.09090
C1619       C  0.02722091  0.29896289  0.66788066     0.29770
C1620       C  0.02535469  0.31022165  0.63635297    -0.21040
C1621       C  0.99596937  0.31281886  0.62038020    -0.09100
C1622       C  0.96834358  0.30459418  0.63758536     0.29780
F1623       F  0.93925913  0.30611663  0.62382366    -0.19620
H1624       H  0.94880540  0.28667817  0.68122136     0.18140
H1625       H  0.04714801  0.31593379  0.62409236     0.18150
F1626       F  0.05592543  0.29715792  0.68235937    -0.19610
C1627       C  0.85002596  0.27432639  0.45713338    -0.21040
C1628       C  0.86356135  0.29129726  0.48275885    -0.09090
C1629       C  0.84440675  0.29671111  0.50965639     0.29770
C1630       C  0.81348286  0.28455189  0.51121071    -0.21040
C1631       C  0.79996953  0.26745712  0.48581931    -0.09100
C1632       C  0.81862258  0.26271640  0.45851100     0.29780
F1633       F  0.80643999  0.24743812  0.43287438    -0.19620
H1634       H  0.86400536  0.26936519  0.43619346     0.18140
H1635       H  0.79993541  0.28839948  0.53265028     0.18150
F1636       F  0.85574925  0.31300470  0.53511478    -0.19610
C1637       C  0.15817842  0.29206492  0.50598396    -0.21040
C1638       C  0.14546013  0.29931675  0.47583648    -0.09090
C1639       C  0.16511972  0.29533484  0.44904580     0.29770
C1640       C  0.19630162  0.28409072  0.45246460    -0.21040
C1641       C  0.20844463  0.27590195  0.48247911    -0.09100
C1642       C  0.18915268  0.28027511  0.50927466     0.29780
F1643       F  0.20011863  0.27263656  0.53863364    -0.19620
H1644       H  0.14351289  0.29385538  0.52697586     0.18140
H1645       H  0.21101833  0.28159411  0.43158298     0.18150
F1646       F  0.15401761  0.30180293  0.41943844    -0.19610
C1647       C  0.99027375  0.26158329  0.29374936    -0.21040
C1648       C  0.01858995  0.25931860  0.27659585    -0.09090
C1649       C  0.04716409  0.26763178  0.29185984     0.29770
C1650       C  0.04733726  0.27744692  0.32382848    -0.21040
C1651       C  0.01895213  0.27982120  0.34116834    -0.09100
C1652       C  0.99029595  0.27186603  0.32550459     0.29780
F1653       F  0.96228721  0.27256494  0.34123625    -0.19620
H1654       H  0.96798107  0.25559446  0.28238732     0.18140
H1655       H  0.06978023  0.28288394  0.33515929     0.18150
F1656       F  0.07495028  0.26614600  0.27582013    -0.19610
C1657       C  0.04049756  0.13449761  0.39669918    -0.21040
C1658       C  0.04213930  0.16629903  0.38740541    -0.09090
C1659       C  0.04959832  0.17417899  0.35580234     0.29770
C1660       C  0.05183499  0.15022096  0.33300638    -0.21040
C1661       C  0.04688111  0.11855697  0.34190304    -0.09100
C1662       C  0.04324067  0.11066326  0.37416152     0.29780
F1663       F  0.03978187  0.07995465  0.38345000    -0.19620
H1664       H  0.03558446  0.12819472  0.42117132     0.18140
H1665       H  0.05452581  0.15658328  0.30820182     0.18150
F1666       F  0.05153580  0.20496749  0.34644772    -0.19610
C1667       C  0.01264665  0.22088532  0.63957759    -0.21040
C1668       C  0.98394050  0.22586808  0.62345412    -0.09090
C1669       C  0.95663326  0.20927472  0.63312845     0.29770
C1670       C  0.95937552  0.18488079  0.65545439    -0.21040
C1671       C  0.98934012  0.17666164  0.66726890    -0.09100
C1672       C  0.01567077  0.19577595  0.66042538     0.29780
F1673       F  0.04506984  0.18812540  0.67113400    -0.19620
H1674       H  0.03387533  0.23395133  0.63331015     0.18140
H1675       H  0.93889838  0.17020533  0.66060530     0.18150
F1676       F  0.92831823  0.21387312  0.61847284    -0.19610
C1677       C  0.28226027  0.06135231  0.63334114    -0.21040
C1678       C  0.28975696  0.03371749  0.61592859    -0.09090
C1679       C  0.28915018  0.00435599  0.63221122     0.29770
C1680       C  0.28009082  0.00283642  0.66433673    -0.21040
C1681       C  0.27133148  0.03033946  0.68100852    -0.09100
C1682       C  0.27322654  0.05973186  0.66537358     0.29780
F1683       F  0.26634226  0.08698150  0.68105268    -0.19620
H1684       H  0.28247661  0.08439673  0.62192092     0.18140
H1685       H  0.27932609  0.97998535  0.67613673     0.18150
F1686       F  0.29599730  0.97686775  0.61691666    -0.19610
C1687       C  0.27586884  0.18615637  0.51182683    -0.21040
C1688       C  0.27643616  0.16880262  0.48320715    -0.09090
C1689       C  0.26503489  0.18377685  0.45532898     0.29770
C1690       C  0.25268146  0.21478279  0.45649741    -0.21040
C1691       C  0.25121933  0.23145285  0.48536353    -0.09100
C1692       C  0.26324358  0.21687442  0.51298469     0.29780
F1693       F  0.26182729  0.23207039  0.54137048    -0.19620
H1694       H  0.28404876  0.17545964  0.53376530     0.18140
H1695       H  0.24448246  0.22592785  0.43479137     0.18150
F1696       F  0.26460783  0.16814026  0.42713500    -0.19610
C1697       C  0.28169385  0.87023125  0.43971102    -0.21040
C1698       C  0.29516419  0.88668413  0.46574275    -0.09090
C1699       C  0.29802316  0.87014429  0.49484375     0.29770
C1700       C  0.28672489  0.83880719  0.49780251    -0.21040
C1701       C  0.27237019  0.82306128  0.47200115    -0.09100
C1702       C  0.27039104  0.83901514  0.44278232     0.29780
F1703       F  0.25739345  0.82449708  0.41708071    -0.19620
H1704       H  0.27863215  0.88195047  0.41700410     0.18140
H1705       H  0.28906514  0.82674735  0.52042267     0.18150
F1706       F  0.31070029  0.88445818  0.52084775    -0.19610
C1707       C  0.28011995  0.04862008  0.32019135    -0.21040
C1708       C  0.28681943  0.01952798  0.33540252    -0.09090
C1709       C  0.27976641  0.99120572  0.31867975     0.29770
C1710       C  0.26589578  0.99217720  0.28834061    -0.21040
C1711       C  0.25887909  0.02117398  0.27353258    -0.09100
C1712       C  0.26651576  0.04947520  0.28962525     0.29780
F1713       F  0.26131618  0.07800325  0.27563255    -0.19620
H1714       H  0.28462928  0.07088132  0.33228855     0.18140
H1715       H  0.26113338  0.97009280  0.27598811     0.18150
F1716       F  0.28573142  0.96234835  0.33173427    -0.19610
C1717       C  0.15484764  0.19453414  0.49132922    -0.21040
C1718       C  0.12357576  0.18410610  0.48789083    -0.09090
C1719       C  0.11564459  0.15242312  0.49458472     0.29770
C1720       C  0.13894029  0.13120190  0.50367503    -0.21040
C1721       C  0.17059220  0.14102736  0.50550946    -0.09100
C1722       C  0.17826449  0.17286083  0.50011149     0.29780
F1723       F  0.20855173  0.18236349  0.50184191    -0.19620
H1724       H  0.16090912  0.21928091  0.48777281     0.18140
H1725       H  0.13267129  0.10642663  0.50696715     0.18150
F1726       F  0.08516313  0.14214807  0.49244300    -0.19610
C1727       C  0.16489932  0.00698425  0.30608029    -0.21040
C1728       C  0.14335592  0.03187287  0.31065565    -0.09090
C1729       C  0.14610126  0.05178244  0.33696049     0.29770
C1730       C  0.16699921  0.04370271  0.36099630    -0.21040
C1731       C  0.18562571  0.01625748  0.35860314    -0.09100
C1732       C  0.18627346  0.99917411  0.33006225     0.29780
F1733       F  0.20435575  0.97277306  0.32697251    -0.19620
H1734       H  0.16241785  0.99126487  0.28583708     0.18140
H1735       H  0.16670049  0.05752988  0.38249602     0.18150
F1736       F  0.12498238  0.07557336  0.34188430    -0.19610
C1737       C  0.16010963  0.01043953  0.64234643    -0.21040
C1738       C  0.13195348  0.02513751  0.63235667    -0.09090
C1739       C  0.13109033  0.04165266  0.60330018     0.29770
C1740       C  0.15842930  0.04549622  0.58585392    -0.21040
C1741       C  0.18663211  0.03166851  0.59612159    -0.09100
C1742       C  0.18739142  0.01322312  0.62386593     0.29780
F1743       F  0.21443876  0.99862931  0.63326109    -0.19620
H1744       H  0.16119893  0.99772636  0.66470994     0.18140
H1745       H  0.15733440  0.05848656  0.56361835     0.18150
F1746       F  0.10380793  0.05435120  0.59179468    -0.19610
C1747       C  0.75205095  0.20502461  0.46162896    -0.21040
C1748       C  0.75584062  0.22370428  0.48912117    -0.09090
C1749       C  0.74775851  0.21013334  0.51853909     0.29770
C1750       C  0.73715327  0.17852434  0.52049169    -0.21040
C1751       C  0.73422924  0.15923685  0.49317486    -0.09100
C1752       C  0.74161697  0.17319459  0.46352325     0.29780
F1753       F  0.73951213  0.15600388  0.43632196    -0.19620
H1754       H  0.75690350  0.21512865  0.43851719     0.18140
H1755       H  0.73209221  0.16888035  0.54378719     0.18150
F1756       F  0.75074252  0.22737473  0.54564106    -0.19610
C1757       C  0.75249395  0.02616344  0.31172090    -0.21040
C1758       C  0.76158214  0.99809998  0.29633609    -0.09090
C1759       C  0.75866066  0.96917756  0.31281603     0.29770
C1760       C  0.74836903  0.96867743  0.34454451    -0.21040
C1761       C  0.74002349  0.99690283  0.36041322    -0.09100
C1762       C  0.74168344  0.02570840  0.34320279     0.29780
F1763       F  0.73482049  0.05385155  0.35726656    -0.19620
H1764       H  0.75405743  0.04864183  0.29929647     0.18140
H1765       H  0.74765147  0.94617034  0.35698636     0.18150
F1766       F  0.76552804  0.94133357  0.29827511    -0.19610
C1767       C  0.77050381  0.00828972  0.68687865    -0.21040
C1768       C  0.77052443  0.03710479  0.70367820    -0.09090
C1769       C  0.75645048  0.06383311  0.68925071     0.29770
C1770       C  0.74390701  0.06199509  0.65827234    -0.21040
C1771       C  0.74492874  0.03344765  0.64080595    -0.09100
C1772       C  0.75799378  0.00636767  0.65589539     0.29780
F1773       F  0.76043508  0.97833021  0.64020042    -0.19620
H1774       H  0.78026250  0.98716711  0.69775895     0.18140
H1775       H  0.73437544  0.08331083  0.64752676     0.18150
F1776       F  0.75559770  0.09199427  0.70488444    -0.19610
C1777       C  0.75611177  0.86259648  0.52820048    -0.21040
C1778       C  0.74866749  0.87723206  0.49895844    -0.09090
C1779       C  0.75322198  0.85928395  0.47091894     0.29770
C1780       C  0.76614194  0.82865211  0.47213088    -0.21040
C1781       C  0.77424075  0.81437270  0.50116568    -0.09100
C1782       C  0.76846251  0.83146445  0.52935392     0.29780
F1783       F  0.77436831  0.81800227  0.55803406    -0.19620
H1784       H  0.75333492  0.87561850  0.55019857     0.18140
H1785       H  0.76954594  0.81574098  0.45014686     0.18150
F1786       F  0.74595748  0.87158204  0.44198037    -0.19610
C1787       C  0.83116058  0.17863730  0.53014921    -0.21040
C1788       C  0.83989895  0.14704608  0.52502021    -0.09090
C1789       C  0.87170391  0.13787508  0.52729975     0.29770
C1790       C  0.89487652  0.16065530  0.53052604    -0.21040
C1791       C  0.88660906  0.19275754  0.53021128    -0.09100
C1792       C  0.85482386  0.20173832  0.53287206     0.29780
F1793       F  0.84685956  0.23263637  0.53540284    -0.19620
H1794       H  0.80655115  0.18553480  0.52971491     0.18140
H1795       H  0.91949866  0.15340733  0.52962461     0.18150
F1796       F  0.88052357  0.10705446  0.52379886    -0.19610
C1797       C  0.87679714  0.96628062  0.38645917    -0.21040
C1798       C  0.85129982  0.98713728  0.38253409    -0.09090
C1799       C  0.84459982  0.00009336  0.35262906     0.29770
C1800       C  0.86506365  0.99445604  0.32739955    -0.21040
C1801       C  0.89223841  0.97597505  0.33201771    -0.09100
C1802       C  0.89748568  0.96089983  0.36129056     0.29780
F1803       F  0.92443904  0.94410811  0.36651239    -0.19620
H1804       H  0.88183090  0.95595649  0.40952160     0.18140
H1805       H  0.86134147  0.00686016  0.30516259     0.18150
F1806       F  0.81937107  0.01955838  0.34840595    -0.19610
C1807       C  0.86216112  0.07029180  0.66941965    -0.21040
C1808       C  0.89154880  0.08219768  0.66037185    -0.09090
C1809       C  0.89587455  0.09544010  0.63010478     0.29770
C1810       C  0.87122694  0.09417837  0.60809630    -0.21040
C1811       C  0.84275566  0.07923955  0.61625271    -0.09100
C1812       C  0.83799229  0.06844983  0.64717050     0.29780
F1813       F  0.81220659  0.05107520  0.65395755    -0.19620
H1814       H  0.85930198  0.05860878  0.69213043     0.18140
H1815       H  0.87558209  0.10142636  0.58387299     0.18150
F1816       F  0.92495166  0.10555647  0.62065021    -0.19610
C1817       C  0.18101099  0.75694490  0.45069360    -0.21040
C1818       C  0.16400519  0.75868503  0.47939516    -0.09090
C1819       C  0.18002953  0.77057956  0.50652519     0.29770
C1820       C  0.21167327  0.78095560  0.50457079    -0.21040
C1821       C  0.22811485  0.78012504  0.47566537    -0.09100
C1822       C  0.21242174  0.76789183  0.44869936     0.29780
F1823       F  0.22708298  0.76738112  0.42008656    -0.19620
H1824       H  0.16953435  0.74842026  0.42926521     0.18140
H1825       H  0.22343791  0.78973133  0.52575145     0.18150
F1826       F  0.16491496  0.77336584  0.53479846    -0.19610
C1827       C  0.03896385  0.75104242  0.30293827    -0.21040
C1828       C  0.00954087  0.76232867  0.29215779    -0.09090
C1829       C  0.98338587  0.75995361  0.31263769     0.29770
C1830       C  0.98692720  0.74759711  0.34355948    -0.21040
C1831       C  0.01676505  0.73766828  0.35510312    -0.09100
C1832       C  0.04266825  0.73897389  0.33390836     0.29780
F1833       F  0.07189277  0.72932468  0.34328889    -0.19620
H1834       H  0.05925847  0.75176779  0.28726829     0.18140
H1835       H  0.96653332  0.74756116  0.35909787     0.18150
F1836       F  0.95445796  0.77013431  0.30296001    -0.19610
C1837       C  0.99955746  0.78507859  0.65091691    -0.21040
C1838       C  0.02401525  0.76847414  0.63522151    -0.09090
C1839       C  0.05267903  0.76380943  0.65201106     0.29770
C1840       C  0.05647287  0.77545679  0.68318883    -0.21040
C1841       C  0.03191764  0.79195441  0.69858593    -0.09100
C1842       C  0.00347284  0.79679123  0.68193066     0.29780
F1843       F  0.97907023  0.81227421  0.69592947    -0.19620
H1844       H  0.97731785  0.78974260  0.63892573     0.18140
H1845       H  0.07864273  0.77136240  0.69553234     0.18150
F1846       F  0.07726014  0.74832493  0.63833660    -0.19610
C1847       C  0.83375522  0.77201256  0.53468621    -0.21040
C1848       C  0.81865559  0.77124752  0.50485744    -0.09090
C1849       C  0.83578267  0.75919288  0.47886760     0.29770
C1850       C  0.86718635  0.74860972  0.48259644    -0.21040
C1851       C  0.88277402  0.75000893  0.51228757    -0.09100
C1852       C  0.86532268  0.76172325  0.53843309     0.29780
F1853       F  0.87884331  0.76370631  0.56767871    -0.19620
H1854       H  0.82100511  0.78029891  0.55531462     0.18140
H1855       H  0.87980474  0.74066482  0.46170723     0.18150
F1856       F  0.82222932  0.75814731  0.44959308    -0.19610
C1857       C  0.87250756  0.85220405  0.49442938    -0.21040
C1858       C  0.90115095  0.85839882  0.51023348    -0.09090
C1859       C  0.90905570  0.88901397  0.51996734     0.29770
C1860       C  0.88890585  0.91363704  0.51303397    -0.21040
C1861       C  0.85994097  0.90794283  0.49740066    -0.09100
C1862       C  0.85161197  0.87702058  0.48827073     0.29780
F1863       F  0.82375472  0.87094512  0.47339367    -0.19620
H1864       H  0.86719533  0.82859272  0.48561932     0.18140
H1865       H  0.89611777  0.93739072  0.51993974     0.18150
F1866       F  0.93778272  0.89554380  0.53320830    -0.19610
C1867       C  0.12520392  0.89226829  0.42636441    -0.21040
C1868       C  0.13405514  0.86076673  0.43243230    -0.09090
C1869       C  0.16593616  0.85334588  0.43757755     0.29770
C1870       C  0.18830789  0.87754983  0.44008660    -0.21040
C1871       C  0.17866298  0.90914393  0.43767198    -0.09100
C1872       C  0.14742778  0.91652541  0.42924932     0.29780
F1873       F  0.13797793  0.94721657  0.42654222    -0.19620
H1874       H  0.10048018  0.89833958  0.42295592     0.18140
H1875       H  0.21235915  0.87187023  0.44692719     0.18150
F1876       F  0.17450348  0.82340413  0.44484876    -0.19610
C1877       C  0.03747187  0.85959708  0.31232257    -0.21040
C1878       C  0.00733430  0.87318220  0.30782742    -0.09090
C1879       C  0.98077670  0.85858452  0.32131461     0.29770
C1880       C  0.98511375  0.83398303  0.34294950    -0.21040
C1881       C  0.01590358  0.82413441  0.35153697    -0.09100
C1882       C  0.04182347  0.83515204  0.33400365     0.29780
F1883       F  0.07168574  0.82484277  0.34004877    -0.19620
H1884       H  0.05820390  0.86974081  0.30104163     0.18140
H1885       H  0.96448154  0.82488358  0.35519095     0.18150
F1886       F  0.95124085  0.87052262  0.31689168    -0.19610
C1887       C  0.00291031  0.89818964  0.64784293    -0.21040
C1888       C  0.02795440  0.91996635  0.64503636    -0.09090
C1889       C  0.04921942  0.91775029  0.61982120     0.29770
C1890       C  0.04355663  0.89583380  0.59584517    -0.21040
C1891       C  0.01690080  0.87572206  0.59706968    -0.09100
C1892       C  0.99749632  0.87582919  0.62407914     0.29780
F1893       F  0.97205970  0.85619137  0.62641035    -0.19620
H1894       H  0.98634424  0.89997779  0.66738407     0.18140
H1895       H  0.05943113  0.89546183  0.57569443     0.18150
F1896       F  0.07339187  0.93887468  0.61670401    -0.19610
C1897       C  0.77523983  0.18850364  0.97144967    -0.21040
C1898       C  0.77361692  0.17011739  0.99946000    -0.09090
C1899       C  0.76049941  0.18437749  0.02677468     0.29770
C1900       C  0.74906565  0.21579079  0.02570863    -0.21040
C1901       C  0.75074550  0.23384229  0.99764021    -0.09100
C1902       C  0.76393099  0.21975747  0.97046977     0.29780
F1903       F  0.76556293  0.23617219  0.94275634    -0.19620
H1904       H  0.78472374  0.17843391  0.94981153     0.18140
H1905       H  0.73909016  0.22618958  0.04696713     0.18150
F1906       F  0.75741803  0.16765825  0.05416233    -0.19610
C1907       C  0.79105236  0.87179802  0.02839962    -0.21040
C1908       C  0.80014582  0.88983885  0.00159896    -0.09090
C1909       C  0.79850019  0.87479801  0.97156741     0.29770
C1910       C  0.78723652  0.84333118  0.96866469    -0.21040
C1911       C  0.77715839  0.82605627  0.99542345    -0.09100
C1912       C  0.77972211  0.84051692  0.02539395     0.29780
F1913       F  0.77083638  0.82448009  0.05188982    -0.19620
H1914       H  0.79154597  0.88231326  0.05187787     0.18140
H1915       H  0.78621926  0.83241036  0.94538183     0.18150
F1916       F  0.80653777  0.89077458  0.94476138    -0.19610
C1917       C  0.77278182  0.07019763  0.81067410    -0.21040
C1918       C  0.76910491  0.04071761  0.79556439    -0.09090
C1919       C  0.77728630  0.01308398  0.81239076     0.29770
C1920       C  0.78777479  0.01489479  0.84409518    -0.21040
C1921       C  0.79036941  0.04434586  0.85989450    -0.09100
C1922       C  0.78314638  0.07212435  0.84239376     0.29780
F1923       F  0.78541925  0.10126155  0.85600746    -0.19620
H1924       H  0.76762370  0.09186997  0.79784433     0.18140
H1925       H  0.79263492  0.99299056  0.85665983     0.18150
F1926       F  0.77458532  0.98422568  0.79827407    -0.19610
C1927       C  0.77592701  0.97987275  0.15559090    -0.21040
C1928       C  0.78044851  0.00967217  0.14090531    -0.09090
C1929       C  0.77434416  0.03720479  0.15911373     0.29770
C1930       C  0.76355303  0.03471825  0.19061271    -0.21040
C1931       C  0.75839620  0.00492344  0.20468738    -0.09100
C1932       C  0.76503839  0.97750426  0.18697221     0.29780
F1933       F  0.76077469  0.94833392  0.20000295    -0.19620
H1934       H  0.77995341  0.95816243  0.14243672     0.18140
H1935       H  0.75912726  0.05615689  0.20407519     0.18150
F1936       F  0.77732269  0.06658402  0.14617847    -0.19610
C1937       C  0.26647601  0.86136729  0.02059376    -0.21040
C1938       C  0.25863937  0.87670206  0.99181531    -0.09090
C1939       C  0.26097369  0.85898979  0.96336516     0.29770
C1940       C  0.27133857  0.82729417  0.96391519    -0.21040
C1941       C  0.27943555  0.81242804  0.99266330    -0.09100
C1942       C  0.27662304  0.82967768  0.02104764     0.29780
F1943       F  0.28358946  0.81577446  0.04930447    -0.19620
H1944       H  0.26531957  0.87411647  0.04290546     0.18140
H1945       H  0.27285753  0.81418564  0.94182999     0.18150
F1946       F  0.25442161  0.87248601  0.93480989    -0.19610
C1947       C  0.24550333  0.20716612  0.94564448    -0.21040
C1948       C  0.25390757  0.22100771  0.97485768    -0.09090
C1949       C  0.25038891  0.20281380  0.00264624     0.29770
C1950       C  0.23972487  0.17113193  0.00102085    -0.21040
C1951       C  0.23227679  0.15670909  0.97162130    -0.09100
C1952       C  0.23493841  0.17552043  0.94390069     0.29780
F1953       F  0.22796626  0.16325576  0.91487894    -0.19620
H1954       H  0.24706162  0.22104441  0.92403025     0.18140
H1955       H  0.23848867  0.15752135  0.02281737     0.18150
F1956       F  0.25755123  0.21562254  0.03138325    -0.19610
C1957       C  0.25198622  0.05062005  0.81983191    -0.21040
C1958       C  0.24933444  0.02152683  0.83630372    -0.09090
C1959       C  0.25779608  0.99349344  0.81986995     0.29770
C1960       C  0.26944851  0.99497168  0.78849757    -0.21040
C1961       C  0.27324514  0.02427282  0.77288903    -0.09100
C1962       C  0.26377596  0.05202126  0.78874747     0.29780
F1963       F  0.26589917  0.08066443  0.77414048    -0.19620
H1964       H  0.24583193  0.07273358  0.83136020     0.18140
H1965       H  0.27584223  0.97320487  0.77643989     0.18150
F1966       F  0.25616965  0.96477359  0.83440604    -0.19610
C1967       C  0.24166481  0.03819646  0.13282678    -0.21040
C1968       C  0.24001329  0.00808133  0.11829419    -0.09090
C1969       C  0.24831990  0.98128143  0.13677343     0.29770
C1970       C  0.25905786  0.98482459  0.16822422    -0.21040
C1971       C  0.26184488  0.01499890  0.18207599    -0.09100
C1972       C  0.25248553  0.04165183  0.16426119     0.29780
F1973       F  0.25434149  0.07114787  0.17710471    -0.19620
H1974       H  0.23613243  0.05938153  0.11932897     0.18140
H1975       H  0.26530030  0.96391184  0.18184377     0.18150
F1976       F  0.24694801  0.95161729  0.12421110    -0.19610
C1977       C  0.53360600  0.19829593  0.23530889    -0.21040
C1978       C  0.50572229  0.21639863  0.23613045    -0.09090
C1979       C  0.47772747  0.20188762  0.24691092     0.29770
C1980       C  0.47767396  0.16993810  0.25649441    -0.21040
C1981       C  0.50554677  0.15153710  0.25571896    -0.09100
C1982       C  0.53366607  0.16630916  0.24502630     0.29780
F1983       F  0.56099520  0.14959424  0.24262306    -0.19620
H1984       H  0.55546491  0.20903282  0.22716855     0.18140
H1985       H  0.45550134  0.15939862  0.26401678     0.18150
F1986       F  0.45025549  0.21852423  0.24770179    -0.19610
C1987       C  0.48947145  0.85489473  0.25624856    -0.21040
C1988       C  0.51817701  0.87160217  0.26068744    -0.09090
C1989       C  0.54639776  0.85662530  0.25034284     0.29770
C1990       C  0.54565972  0.82656916  0.23586243    -0.21040
C1991       C  0.51709415  0.81006643  0.23159771    -0.09100
C1992       C  0.48892385  0.82449883  0.24212120     0.29780
F1993       F  0.46086773  0.80896513  0.23910058    -0.19620
H1994       H  0.46724334  0.86560831  0.26313972     0.18140
H1995       H  0.56772976  0.81565654  0.22872905     0.18150
F1996       F  0.57498319  0.87110814  0.25367443    -0.19610
C1997       C  0.32147860  0.99000638  0.23387766    -0.21040
C1998       C  0.30598993  0.01823468  0.22516594    -0.09090
C1999       C  0.32218811  0.04712436  0.22928273     0.29770
C2000       C  0.35314309  0.04775413  0.24162380    -0.21040
C2001       C  0.36904799  0.01957756  0.25032350    -0.09100
C2002       C  0.35256936  0.99053313  0.24626338     0.29780
F2003       F  0.36657997  0.96249132  0.25356720    -0.19620
H2004       H  0.30923310  0.96749215  0.23150471     0.18140
H2005       H  0.36487028  0.07054776  0.24386233     0.18150
F2006       F  0.30782007  0.07493052  0.22176976    -0.19610
C2007       C  0.69944541  0.97234776  0.25256843    -0.21040
C2008       C  0.71443329  0.00161393  0.24720638    -0.09090
C2009       C  0.69747111  0.02968438  0.25296452     0.29770
C2010       C  0.66574070  0.02837681  0.26289503    -0.21040
C2011       C  0.65010929  0.99903486  0.26708631    -0.09100
C2012       C  0.66770304  0.97093218  0.26224200     0.29780
F2013       F  0.65405062  0.94195002  0.26596809    -0.19620
H2014       H  0.71239976  0.95046281  0.24906125     0.18140
H2015       H  0.65297760  0.05045247  0.26583133     0.18150
F2016       F  0.71159485  0.05838476  0.24894379    -0.19610
C2017       C  0.36609976  0.00150651  0.15533772    -0.21040
C2018       C  0.39120131  0.02345532  0.15575810    -0.09090
C2019       C  0.39822087  0.04130268  0.12869824     0.29770
C2020       C  0.38001084  0.03769409  0.10167187    -0.21040
C2021       C  0.35411202  0.01661506  0.10118528    -0.09100
C2022       C  0.34732248  0.99822044  0.12816364     0.29780
F2023       F  0.32266252  0.97750015  0.12839968    -0.19620
H2024       H  0.36131967  0.98679549  0.17588099     0.18140
H2025       H  0.38639770  0.05153795  0.08093441     0.18150
F2026       F  0.42390457  0.06080415  0.12768257    -0.19610
C2027       C  0.61235971  0.96861608  0.11301573    -0.21040
C2028       C  0.62070418  0.96804073  0.14524133    -0.09090
C2029       C  0.65255506  0.96505087  0.15433734     0.29770
C2030       C  0.67612029  0.96722750  0.13124807    -0.21040
C2031       C  0.66756869  0.97240722  0.09944119    -0.09100
C2032       C  0.63572220  0.97089573  0.09010106     0.29780
F2033       F  0.62722472  0.97474034  0.05917012    -0.19620
H2034       H  0.58773554  0.97044355  0.10583977     0.18140
H2035       H  0.70075774  0.96821857  0.13853549     0.18150
F2036       F  0.66088126  0.96425427  0.18549976    -0.19610
C2037       C  0.65424745  0.27947940  0.97379390    -0.21040
C2038       C  0.64029633  0.29020333  0.00216361    -0.09090
C2039       C  0.65979971  0.29378451  0.02919711     0.29770
C2040       C  0.69242508  0.28685610  0.02763644    -0.21040
C2041       C  0.70602404  0.27544235  0.99937832    -0.09100
C2042       C  0.68655297  0.27184390  0.97247017     0.29780
F2043       F  0.69878192  0.26069787  0.94486548    -0.19620
H2044       H  0.63973842  0.27561898  0.95284748     0.18140
H2045       H  0.70705111  0.28998209  0.04860587     0.18150
F2046       F  0.64731914  0.30393593  0.05706247    -0.19610
C2047       C  0.34458800  0.28331231  0.95138231    -0.21040
C2048       C  0.35910133  0.29194791  0.98047713    -0.09090
C2049       C  0.34091127  0.28860386  0.00842899     0.29770
C2050       C  0.30976566  0.27629671  0.00711423    -0.21040
C2051       C  0.29620028  0.26631626  0.97815230    -0.09100
C2052       C  0.31390617  0.27031441  0.95025843     0.29780
F2053       F  0.30147225  0.26161984  0.92176701    -0.19620
H2054       H  0.35753805  0.28523047  0.92930104     0.18140
H2055       H  0.29620844  0.27435386  0.02883198     0.18150
F2056       F  0.35328263  0.29665118  0.03713116    -0.19610
C2057       C  0.52800856  0.30174169  0.83484490    -0.21040
C2058       C  0.49803594  0.30188880  0.84956607    -0.09090
C2059       C  0.47136955  0.29349273  0.83082252     0.29770
C2060       C  0.47497197  0.28388639  0.79910927    -0.21040
C2061       C  0.50497885  0.28268068  0.78500122    -0.09100
C2062       C  0.53144936  0.29236778  0.80296685     0.29780
F2063       F  0.56075325  0.29218538  0.78980929    -0.19620
H2064       H  0.54906477  0.30785715  0.84830966     0.18140
H2065       H  0.45414182  0.27743932  0.78547358     0.18150
F2066       F  0.44176626  0.29323637  0.84330909    -0.19610
C2067       C  0.53709128  0.28201070  0.14803797    -0.21040
C2068       C  0.50916102  0.28342519  0.12966735    -0.09090
C2069       C  0.48060508  0.27285895  0.14356453     0.29770
C2070       C  0.48020997  0.26118774  0.17479981    -0.21040
C2071       C  0.50806592  0.25998437  0.19301155    -0.09100
C2072       C  0.53654471  0.27069093  0.17942974     0.29780
F2073       F  0.56383914  0.27011227  0.19655529    -0.19620
H2074       H  0.55952758  0.28918759  0.13785239     0.18140
H2075       H  0.45799427  0.25329967  0.18496113     0.18150
F2076       F  0.45330122  0.27210549  0.12643529    -0.19610
C2077       C  0.47389576  0.17455409  0.12486478    -0.21040
C2078       C  0.50339898  0.18441387  0.11271034    -0.09090
C2079       C  0.53111410  0.17696605  0.12958369     0.29770
C2080       C  0.52951655  0.15596669  0.15511397    -0.21040
C2081       C  0.50043426  0.14199086  0.16378340    -0.09100
C2082       C  0.47233239  0.15344880  0.15028453     0.29780
F2083       F  0.44372278  0.14144997  0.15884421    -0.19620
H2084       H  0.45199797  0.18133815  0.11323474     0.18140
H2085       H  0.55145070  0.14821267  0.16606077     0.18150
F2086       F  0.55994242  0.18720011  0.11961262    -0.19610
C2087       C  0.35662346  0.19368145  0.92568754    -0.21040
C2088       C  0.36401734  0.20771892  0.95501894    -0.09090
C2089       C  0.34452326  0.20241548  0.98137507     0.29770
C2090       C  0.32123324  0.17943800  0.97978630    -0.21040
C2091       C  0.31759556  0.16116646  0.95220985    -0.09100
C2092       C  0.33332162  0.17011405  0.92423021     0.29780
F2093       F  0.33005131  0.15281878  0.89719056    -0.19620
H2094       H  0.37149452  0.19781010  0.90515240     0.18140
H2095       H  0.30919274  0.17290593  0.00152700     0.18150
F2096       F  0.35086015  0.21620528  0.00988113    -0.19610
C2097       C  0.62026416  0.15235932  0.97722091    -0.21040
C2098       C  0.61857280  0.17803619  0.99849941    -0.09090
C2099       C  0.64547396  0.18616604  0.01661317     0.29770
C2100       C  0.67338625  0.16853190  0.01331189    -0.21040
C2101       C  0.67491068  0.14354305  0.99123389    -0.09100
C2102       C  0.64806054  0.13548187  0.97350458     0.29780
F2103       F  0.64792205  0.10962270  0.95436450    -0.19620
H2104       H  0.59982826  0.14503462  0.96335929     0.18140
H2105       H  0.69358359  0.17403153  0.02822257     0.18150
F2106       F  0.64497535  0.21113369  0.03699650    -0.19610
C2107       C  0.67534768  0.06252699  0.73713814    -0.21040
C2108       C  0.66348478  0.03402061  0.72413638    -0.09090
C2109       C  0.68276690  0.00675355  0.72574968     0.29770
C2110       C  0.71288908  0.00812339  0.73988044    -0.21040
C2111       C  0.72472357  0.03660836  0.75273453    -0.09100
C2112       C  0.70552327  0.06383040  0.75136816     0.29780
F2113       F  0.71631352  0.09194984  0.76287457    -0.19620
H2114       H  0.66079053  0.08366928  0.73725644     0.18140
H2115       H  0.72750662  0.98701876  0.74003656     0.18150
F2116       F  0.67246039  0.97863492  0.71374047    -0.19610
C2117       C  0.36508802  0.05952614  0.71848180    -0.21040
C2118       C  0.38315199  0.03218262  0.71173994    -0.09090
C2119       C  0.36793099  0.00233999  0.71444072     0.29770
C2120       C  0.33595289  0.00022683  0.72394047    -0.21040
C2121       C  0.31840756  0.02764365  0.73109097    -0.09100
C2122       C  0.33332393  0.05733817  0.72798263     0.29780
F2123       F  0.31713050  0.08441775  0.73410675    -0.19620
H2124       H  0.37573881  0.08290702  0.71713843     0.18140
H2125       H  0.32475878  0.97711187  0.72555230     0.18150
F2126       F  0.38390786  0.97512441  0.70827726    -0.19610
C2127       C  0.53779912  0.22519805  0.73440552    -0.21040
C2128       C  0.50873680  0.24012990  0.74053184    -0.09090
C2129       C  0.48064267  0.22349404  0.73357303     0.29770
C2130       C  0.48169592  0.19245842  0.72129959    -0.21040
C2131       C  0.51078893  0.17695239  0.71574724    -0.09100
C2132       C  0.53896079  0.19405577  0.72232604     0.29780
F2133       F  0.56777096  0.18055587  0.71794925    -0.19620
H2134       H  0.55974572  0.23781055  0.73897544     0.18140
H2135       H  0.45950195  0.18021978  0.71699051     0.18150
F2136       F  0.45208730  0.23736604  0.73834510    -0.19610
C2137       C  0.56562029  0.88111917  0.73541456    -0.21040
C2138       C  0.54166137  0.89623045  0.71752038    -0.09090
C2139       C  0.51549192  0.87756397  0.70776099     0.29770
C2140       C  0.51320923  0.84537447  0.71643941    -0.21040
C2141       C  0.53699062  0.83052133  0.73464855    -0.09100
C2142       C  0.56332955  0.84893994  0.74395736     0.29780
F2143       F  0.58709506  0.83599440  0.76132659    -0.19620
H2144       H  0.58589559  0.89449888  0.74390373     0.18140
H2145       H  0.49237206  0.83208163  0.70932969     0.18150
F2146       F  0.49135540  0.89052333  0.69082873    -0.19610
C2147       C  0.50643382  0.19100971  0.80636204    -0.21040
C2148       C  0.48152847  0.16989655  0.80029258    -0.09090
C2149       C  0.45176411  0.17495260  0.81424896     0.29770
C2150       C  0.44890419  0.19745139  0.83844843    -0.21040
C2151       C  0.47573306  0.21453464  0.84828020    -0.09100
C2152       C  0.50367712  0.21318200  0.83038116     0.29780
F2153       F  0.52984807  0.22976254  0.83933557    -0.19620
H2154       H  0.52931057  0.18774794  0.79522881     0.18140
H2155       H  0.42719369  0.19842365  0.85207791     0.18150
F2156       F  0.42704950  0.15522980  0.80797494    -0.19610
C2157       C  0.36708390  0.04428594  0.80574083    -0.21040
C2158       C  0.39329461  0.06387651  0.81071353    -0.09090
C2159       C  0.39482208  0.08409106  0.83717145     0.29770
C2160       C  0.37046296  0.08355692  0.85935253    -0.21040
C2161       C  0.34540939  0.06206627  0.85551976    -0.09100
C2162       C  0.34345093  0.04295861  0.82843903     0.29780
F2163       F  0.32129786  0.01984644  0.82637688    -0.19620
H2164       H  0.36666584  0.02758817  0.78616026     0.18140
H2165       H  0.37285041  0.09721482  0.88107123     0.18150
F2166       F  0.42156209  0.10094285  0.84363362    -0.19610
C2167       C  0.69448997  0.02182246  0.84598477    -0.21040
C2168       C  0.69277311  0.04318988  0.87157748    -0.09090
C2169       C  0.66469188  0.05946706  0.87751828     0.29770
C2170       C  0.63864209  0.05453571  0.85837039    -0.21040
C2171       C  0.64011933  0.03391350  0.83213715    -0.09100
C2172       C  0.66833247  0.01743613  0.82596261     0.29780
F2173       F  0.67065440  0.99733376  0.80090432    -0.19620
H2174       H  0.71580186  0.00820243  0.84193438     0.18140
H2175       H  0.61709056  0.06707073  0.86437975     0.18150
F2176       F  0.66158494  0.07839775  0.90333256    -0.19610
C2177       C  0.36958954  0.74942799  0.01883844    -0.21040
C2178       C  0.38679296  0.75055101  0.99020638    -0.09090
C2179       C  0.37053759  0.75975357  0.96229118     0.29770
C2180       C  0.33842762  0.76865159  0.96346498    -0.21040
C2181       C  0.32173675  0.76829743  0.99228843    -0.09100
C2182       C  0.33752531  0.75805044  0.01989203     0.29780
F2183       F  0.32217094  0.75736558  0.04816073    -0.19620
H2184       H  0.38134870  0.74295123  0.04081446     0.18140
H2185       H  0.32663062  0.77622628  0.94186904     0.18150
F2186       F  0.38611837  0.76224825  0.93423546    -0.19610
C2187       C  0.68431241  0.75923046  0.01112839    -0.21040
C2188       C  0.66928052  0.76010521  0.98113215    -0.09090
C2189       C  0.68689375  0.77249734  0.95528005     0.29770
C2190       C  0.71790962  0.78403312  0.95961027    -0.21040
C2191       C  0.73258347  0.78336767  0.98954345    -0.09100
C2192       C  0.71551937  0.77055428  0.01528577     0.29780
F2193       F  0.72904926  0.76904119  0.04453978    -0.19620
H2194       H  0.67168950  0.75032991  0.03165348     0.18140
H2195       H  0.73078618  0.79309910  0.93930332     0.18150
F2196       F  0.67404957  0.77432068  0.92573128    -0.19610
C2197       C  0.54254806  0.74422368  0.13980079    -0.21040
C2198       C  0.51414453  0.74628127  0.12214119    -0.09090
C2199       C  0.48704073  0.75811175  0.13804917     0.29770
C2200       C  0.48881179  0.76853612  0.16975221    -0.21040
C2201       C  0.51724217  0.76696185  0.18696370    -0.09100
C2202       C  0.54405248  0.75418865  0.17177837     0.29780
F2203       F  0.57190705  0.75181268  0.18779009    -0.19620
H2204       H  0.56399039  0.73579839  0.12858908     0.18140
H2205       H  0.46767669  0.77759410  0.18106184     0.18150
F2206       F  0.45874883  0.76059814  0.12283048    -0.19610
C2207       C  0.56371424  0.76468371  0.82355478    -0.21040
C2208       C  0.53567625  0.76400612  0.84163783    -0.09090
C2209       C  0.50729982  0.77408678  0.82687074     0.29770
C2210       C  0.50739495  0.78533228  0.79544383    -0.21040
C2211       C  0.53549883  0.78647951  0.77779244    -0.09100
C2212       C  0.56360474  0.77536945  0.79195557     0.29780
F2213       F  0.59097915  0.77459555  0.77517989    -0.19620
H2214       H  0.58595517  0.75716614  0.83398230     0.18140
H2215       H  0.48534507  0.79300052  0.78470001     0.18150
F2216       F  0.47956191  0.77440141  0.84307769    -0.19610
C2217       C  0.58105093  0.88175849  0.85663659    -0.21040
C2218       C  0.55533682  0.86074677  0.85869777    -0.09090
C2219       C  0.52868948  0.86523567  0.83912090     0.29770
C2220       C  0.52598240  0.89262261  0.82103797    -0.21040
C2221       C  0.54994470  0.91556929  0.82196473    -0.09100
C2222       C  0.57844237  0.90922684  0.83816756     0.29780
F2223       F  0.60229838  0.93092429  0.83870397    -0.19620
H2224       H  0.60157111  0.87873470  0.87185413     0.18140
H2225       H  0.50440844  0.89671859  0.80762044     0.18150
F2226       F  0.50358823  0.84508899  0.84061893    -0.19610
C2227       C  0.54770852  0.86248710  0.11538191    -0.21040
C2228       C  0.51842146  0.84773427  0.10958609    -0.09090
C2229       C  0.49582601  0.84542389  0.13378737     0.29770
C2230       C  0.50082620  0.86192619  0.16188080    -0.21040
C2231       C  0.52803143  0.88077373  0.16531863    -0.09100
C2232       C  0.55276534  0.87869469  0.14349357     0.29780
F2233       F  0.57918790  0.89695064  0.14660397    -0.19620
H2234       H  0.56571558  0.86368686  0.09717480     0.18140
H2235       H  0.48166413  0.86365222  0.17887120     0.18150
F2236       F  0.46748781  0.83091230  0.12881994    -0.19610
C2237       C  0.36576773  0.89034602  0.02274711    -0.21040
C2238       C  0.37415729  0.92182137  0.01552763    -0.09090
C2239       C  0.40609190  0.93072404  0.01412713     0.29770
C2240       C  0.42936141  0.90769485  0.01652834    -0.21040
C2241       C  0.42093789  0.87563487  0.01993888    -0.09100
C2242       C  0.38918322  0.86710470  0.02481913     0.29780
F2243       F  0.38058789  0.83616187  0.02790732    -0.19620
H2244       H  0.34107650  0.88335147  0.02409366     0.18140
H2245       H  0.45390465  0.91454528  0.01319224     0.18150
F2246       F  0.41464587  0.96134160  0.00857524    -0.19610
C2247       C  0.67630362  0.90551927  0.96160181    -0.21040
C2248       C  0.69467709  0.90302644  0.98941944    -0.09090
C2249       C  0.69815840  0.87350069  0.00429308     0.29770
C2250       C  0.68038392  0.84783895  0.99346253    -0.21040
C2251       C  0.65958461  0.85140429  0.96760270    -0.09100
C2252       C  0.65945994  0.87961188  0.95021463     0.29780
F2253       F  0.63858602  0.88392665  0.92596424    -0.19620
H2254       H  0.67286375  0.92815380  0.94997047     0.18140
H2255       H  0.67939019  0.82667288  0.00797514     0.18150
F2256       F  0.71499288  0.87050847  0.03164536    -0.19610
C2257       C  0.86991559  0.79385026  0.02556224    -0.21040
C2258       C  0.88799636  0.79916927  0.99785211    -0.09090
C2259       C  0.87319949  0.79339383  0.96823486     0.29770
C2260       C  0.84163797  0.78235593  0.96667493    -0.21040
C2261       C  0.82406152  0.77661230  0.99445099    -0.09100
C2262       C  0.83850651  0.78279552  0.02393224     0.29780
F2263       F  0.82217430  0.77814851  0.05126815    -0.19620
H2264       H  0.88041677  0.79748868  0.04880296     0.18140
H2265       H  0.83078787  0.77836659  0.94365334     0.18150
F2266       F  0.88958305  0.79696105  0.94077315    -0.19610
C2267       C  0.21444467  0.77407211  0.96999847    -0.21040
C2268       C  0.23003578  0.76597864  0.99826962    -0.09090
C2269       C  0.21433255  0.77133441  0.02726404     0.29770
C2270       C  0.18327020  0.78368322  0.02768883    -0.21040
C2271       C  0.16736499  0.79157921  0.99923344    -0.09100
C2272       C  0.18385711  0.78692919  0.97029365     0.29780
F2273       F  0.17022671  0.79381608  0.94186258    -0.19620
H2274       H  0.22627117  0.77072566  0.94744266     0.18140
H2275       H  0.17147334  0.78653454  0.05031100     0.18150
F2276       F  0.22908160  0.76483152  0.05519294    -0.19610
C2277       C  0.06942147  0.80232701  0.83791027    -0.21040
C2278       C  0.04172258  0.80272238  0.85657009    -0.09090
C2279       C  0.01260992  0.79542782  0.84140774     0.29770
C2280       C  0.01157573  0.78727939  0.80906574    -0.21040
C2281       C  0.03919990  0.78674926  0.79068192    -0.09100
C2282       C  0.06816170  0.79478710  0.80529589     0.29780
F2283       F  0.09531327  0.79479539  0.78813715    -0.19620
H2284       H  0.09221801  0.80733996  0.84870351     0.18140
H2285       H  0.98904121  0.78105149  0.79832607     0.18150
F2286       F  0.98517899  0.79427721  0.85811757    -0.19610
C2287       C  0.03271388  0.78258236  0.15479553    -0.21040
C2288       C  0.00465302  0.78521098  0.13672955    -0.09090
C2289       C  0.97571833  0.77703543  0.15155009     0.29770
C2290       C  0.97523117  0.76553752  0.18291310    -0.21040
C2291       C  0.00339015  0.76201763  0.20031726    -0.09100
C2292       C  0.03214463  0.77101621  0.18607924     0.29780
F2293       F  0.05981831  0.76813026  0.20234210    -0.19620
H2294       H  0.05544298  0.78806998  0.14423809     0.18140
H2295       H  0.95277404  0.75937975  0.19368934     0.18150
F2296       F  0.94786217  0.77930447  0.13551748    -0.19610
C2297       C  0.84608805  0.25918899  0.00861635    -0.21040
C2298       C  0.86134638  0.26474148  0.97938104    -0.09090
C2299       C  0.84382746  0.28061209  0.95533212     0.29770
C2300       C  0.81246210  0.29030520  0.96051109    -0.21040
C2301       C  0.79727845  0.28433125  0.98946896    -0.09100
C2302       C  0.81459404  0.26890633  0.01366892     0.29780
F2303       F  0.80113335  0.26357439  0.04241881    -0.19620
H2304       H  0.85878543  0.24799134  0.02799117     0.18140
H2305       H  0.79973239  0.30200613  0.94146344     0.18150
F2306       F  0.85699050  0.28745599  0.92674398    -0.19610
C2307       C  0.96234593  0.29370587  0.79157684    -0.21040
C2308       C  0.99167046  0.29174271  0.77603174    -0.09090
C2309       C  0.01721814  0.27772749  0.79234242     0.29770
C2310       C  0.01317006  0.26510758  0.82293358    -0.21040
C2311       C  0.98382084  0.26702937  0.83876431    -0.09100
C2312       C  0.95841365  0.28178760  0.82255098     0.29780
F2313       F  0.92980257  0.28527220  0.83671730    -0.19620
H2314       H  0.94222087  0.30418358  0.77959567     0.18140
H2315       H  0.03365735  0.25514393  0.83481439     0.18150
F2316       F  0.04635321  0.27670594  0.77885608    -0.19610
C2317       C  0.19096888  0.25553976  0.00237474    -0.21040
C2318       C  0.20441310  0.26761661  0.97444315    -0.09090
C2319       C  0.18616825  0.26730261  0.94642274     0.29770
C2320       C  0.15467182  0.25612089  0.94674575    -0.21040
C2321       C  0.14070807  0.24486742  0.97502664    -0.09100
C2322       C  0.15974346  0.24415603  0.00277619     0.29780
F2323       F  0.14805424  0.23321945  0.03073840    -0.19620
H2324       H  0.20480368  0.25497870  0.02409275     0.18140
H2325       H  0.14083812  0.25746996  0.92507161     0.18150
F2326       F  0.19876837  0.27797417  0.91877430    -0.19610
C2327       C  0.04753431  0.26260896  0.16777168    -0.21040
C2328       C  0.01912507  0.26563439  0.18463256    -0.09090
C2329       C  0.99042134  0.25938982  0.16874255     0.29770
C2330       C  0.99020371  0.25111606  0.13636717    -0.21040
C2331       C  0.01863574  0.24871800  0.11901087    -0.09100
C2332       C  0.04746034  0.25417196  0.13548854     0.29780
F2333       F  0.07573228  0.25231299  0.12035460    -0.19620
H2334       H  0.06993568  0.26684755  0.17966700     0.18140
H2335       H  0.96758528  0.24748702  0.12468138     0.18150
F2336       F  0.96251025  0.26181230  0.18445800    -0.19610
C2337       C  0.85277005  0.53758072  0.26162715    -0.21040
C2338       C  0.87284738  0.51137310  0.25658760    -0.09090
C2339       C  0.85980296  0.48409661  0.24200553     0.29770
C2340       C  0.82779993  0.48331592  0.23258594    -0.21040
C2341       C  0.80788960  0.50946518  0.23769172    -0.09100
C2342       C  0.82063629  0.53656942  0.25261750     0.29780
F2343       F  0.80211268  0.56229735  0.25795654    -0.19620
H2344       H  0.86218040  0.55918789  0.27200130     0.18140
H2345       H  0.81847377  0.46216266  0.22123855     0.18150
F2346       F  0.87843063  0.45883746  0.23502532    -0.19610
C2347       C  0.17301402  0.48994095  0.26027723    -0.21040
C2348       C  0.15312144  0.51675044  0.25891347    -0.09090
C2349       C  0.16587042  0.54535832  0.24680811     0.29770
C2350       C  0.19709643  0.54651405  0.23539199    -0.21040
C2351       C  0.21642205  0.51947713  0.23610657    -0.09100
C2352       C  0.20429014  0.49130290  0.24921743     0.29780
F2353       F  0.22263467  0.46494017  0.25097689    -0.19140
H2354       H  0.16408346  0.46752109  0.26918722     0.18140
H2355       H  0.20620828  0.56857499  0.22578662     0.18150
F2356       F  0.14770438  0.57177267  0.24413217    -0.19610
C2357       C  0.96942781  0.67078611  0.25871466    -0.21040
C2358       C  0.99682668  0.65186138  0.25841852    -0.09090
C2359       C  0.02590762  0.66617372  0.24976589     0.29770
C2360       C  0.02732170  0.69827810  0.24136439    -0.21040
C2361       C  0.00004174  0.71702647  0.24167521    -0.09100
C2362       C  0.97108533  0.70322372  0.25089398     0.29780
F2363       F  0.94440532  0.72108245  0.25199149    -0.19620
H2364       H  0.94671648  0.66036784  0.26463696     0.18140
H2365       H  0.04984851  0.70859980  0.23459737     0.18150
F2366       F  0.05281580  0.64873387  0.24749035    -0.19610
C2367       C  0.05156730  0.32357220  0.22817264    -0.21040
C2368       C  0.02214883  0.30803003  0.22877336    -0.09090
C2369       C  0.99579764  0.32425729  0.24091270     0.29770
C2370       C  0.99877048  0.35565524  0.25163878    -0.21040
C2371       C  0.02806401  0.37182324  0.25031983    -0.09100
C2372       C  0.05464180  0.35503615  0.23880392     0.29780
F2373       F  0.08346957  0.36920141  0.23666727    -0.19620
H2374       H  0.07228515  0.31126678  0.21947193     0.18140
H2375       H  0.97772146  0.36765010  0.25998584     0.18150
F2376       F  0.96700454  0.30986527  0.24188268    -0.19610
C2377       C  0.02802238  0.33883899  0.13524163    -0.21040
C2378       C  0.05154436  0.33865031  0.11193512    -0.09090
C2379       C  0.07845096  0.35806141  0.11544817     0.29770
C2380       C  0.07936562  0.38075842  0.13974368    -0.21040
C2381       C  0.05330302  0.38406732  0.16004725    -0.09100
C2382       C  0.02867124  0.36157634  0.15902911     0.29780
F2383       F  0.00307295  0.36437591  0.17825264    -0.19620
H2384       H  0.00720109  0.32390052  0.13277674     0.18140
H2385       H  0.09836135  0.39811448  0.14012367     0.18150
F2386       F  0.10139517  0.35827276  0.09294069    -0.19610
C2387       C  0.96713591  0.65202257  0.14615645    -0.21040
C2388       C  0.97213594  0.62057856  0.13667413    -0.09090
C2389       C  0.97593853  0.61308140  0.10446051     0.29770
C2390       C  0.97935867  0.63726932  0.08247641    -0.21040
C2391       C  0.97845533  0.66886697  0.09253060    -0.09100
C2392       C  0.97019335  0.67635511  0.12392348     0.29780
F2393       F  0.96890629  0.70698403  0.13376617    -0.19620
H2394       H  0.96433723  0.65790455  0.17106666     0.18140
H2395       H  0.98503461  0.63140667  0.05806985     0.18150
F2396       F  0.97983723  0.58251452  0.09495764    -0.19610
C2397       C  0.28009135  0.53928609  0.83367288    -0.21040
C2398       C  0.28409441  0.50904493  0.84753360    -0.09090
C2399       C  0.27783448  0.48210120  0.82849472     0.29770
C2400       C  0.26732058  0.48548077  0.79698416    -0.21040
C2401       C  0.26254567  0.51563993  0.78364055    -0.09100
C2402       C  0.26938928  0.54257864  0.80216417     0.29780
F2403       F  0.26560783  0.57209602  0.78981126    -0.19620
H2404       H  0.28382754  0.56053796  0.84770041     0.18140
H2405       H  0.26299616  0.46442430  0.78281890     0.18150
F2406       F  0.28136509  0.45237870  0.84045493    -0.19610
C2407       C  0.27190214  0.49289637  0.14268662    -0.21040
C2408       C  0.27925722  0.52167856  0.12718610    -0.09090
C2409       C  0.27636853  0.55022884  0.14464568     0.29770
C2410       C  0.26534421  0.54989004  0.17594032    -0.21040
C2411       C  0.25772540  0.52127394  0.19107356    -0.09100
C2412       C  0.26133705  0.49266853  0.17432557     0.29780
F2413       F  0.25449088  0.46455095  0.18851140    -0.19620
H2414       H  0.27331364  0.47056216  0.13002994     0.18140
H2415       H  0.26322780  0.57211620  0.18870600     0.18150
F2416       F  0.28353098  0.57875522  0.13143345    -0.19610
C2417       C  0.28958844  0.67284981  0.97019277    -0.21040
C2418       C  0.29060533  0.65593055  0.99909610    -0.09090
C2419       C  0.28300189  0.67264269  0.02729973     0.29770
C2420       C  0.27367855  0.70458446  0.02624483    -0.21040
C2421       C  0.27200532  0.72101534  0.99736179    -0.09100
C2422       C  0.28055961  0.70499234  0.96932500     0.29780
F2423       F  0.27967392  0.72035586  0.94098438    -0.19620
H2424       H  0.29478262  0.66094531  0.94801629     0.18140
H2425       H  0.26787483  0.71658742  0.04819940     0.18150
F2426       F  0.28329438  0.65795574  0.05601335    -0.19610
C2427       C  0.25760468  0.36174796  0.00197909    -0.21040
C2428       C  0.26905117  0.37607210  0.97399641    -0.09090
C2429       C  0.26931500  0.35789858  0.94585232     0.29770
C2430       C  0.25834728  0.32638513  0.94586844    -0.21040
C2431       C  0.24658428  0.31238086  0.97375753    -0.09100
C2432       C  0.24633740  0.33035060  0.00185812     0.29780
F2433       F  0.23549990  0.31737635  0.02928453    -0.19620
H2434       H  0.25622333  0.37529675  0.02380767     0.18140
H2435       H  0.25926219  0.31272134  0.92409268     0.18150
F2436       F  0.28013514  0.37060380  0.91829006    -0.19610
C2437       C  0.19210841  0.49702189  0.13644681    -0.21040
C2438       C  0.19759771  0.52776661  0.12412944    -0.09090
C2439       C  0.18511758  0.55395192  0.14012944     0.29770
C2440       C  0.16280726  0.54897307  0.16398447    -0.21040
C2441       C  0.15252419  0.51793130  0.17167160    -0.09100
C2442       C  0.16954971  0.49201551  0.16002102     0.29780
F2443       F  0.16133758  0.46179972  0.16774375    -0.19620
H2444       H  0.20259667  0.47640886  0.12527076     0.18140
H2445       H  0.15089485  0.56950069  0.17378212     0.18150
F2446       F  0.19076841  0.58397365  0.12982138    -0.19610
C2447       C  0.14283455  0.39755119  0.99458960    -0.21040
C2448       C  0.16449683  0.40051971  0.96929338    -0.09090
C2449       C  0.16945190  0.37429733  0.94925750     0.29770
C2450       C  0.15230497  0.34616888  0.95440214    -0.21040
C2451       C  0.13168007  0.34355745  0.98051909    -0.09100
C2452       C  0.12751238  0.36936672  0.00074658     0.29780
F2453       F  0.10638735  0.36840254  0.02499744    -0.19620
H2454       H  0.13750693  0.41715120  0.01025748     0.18140
H2455       H  0.15468683  0.32669594  0.93782508     0.18150
F2456       F  0.19040484  0.37580834  0.92491799    -0.19610
C2457       C  0.17949343  0.69883473  0.96657902    -0.21040
C2458       C  0.16339373  0.70808811  0.99396208    -0.09090
C2459       C  0.17455398  0.69785053  0.02389771     0.29770
C2460       C  0.19646123  0.67329716  0.02574457    -0.21040
C2461       C  0.20774540  0.65943098  0.99781656    -0.09100
C2462       C  0.20193153  0.67475171  0.96843613     0.29780
F2463       F  0.21497416  0.66412120  0.94098444    -0.19620
H2464       H  0.17219424  0.70741730  0.94341706     0.18140
H2465       H  0.20178896  0.66302015  0.04874211     0.18150
F2466       F  0.16142964  0.70878734  0.05119406    -0.19610
C2467       C  0.17037251  0.50006572  0.71878713    -0.21040
C2468       C  0.15749578  0.53071105  0.71462765    -0.09090
C2469       C  0.17711797  0.55701395  0.72232161     0.29770
C2470       C  0.20776174  0.55262466  0.73460741    -0.21040
C2471       C  0.22027698  0.52214283  0.73906896    -0.09100
C2472       C  0.20142866  0.49581923  0.73058876     0.29780
F2473       F  0.21300579  0.46597631  0.73392022    -0.19620
H2474       H  0.15612092  0.47926031  0.71366024     0.18140
H2475       H  0.22202970  0.57327268  0.74033814     0.18150
F2476       F  0.16648530  0.58724035  0.71912525    -0.19610
C2477       C  0.02206528  0.35301653  0.73013081    -0.21040
C2478       C  0.99355090  0.33628111  0.73358705    -0.09090
C2479       C  0.96492354  0.35210253  0.72698671     0.29770
C2480       C  0.96497602  0.38449183  0.71852128    -0.21040
C2481       C  0.99361805  0.40146903  0.71539622    -0.09100
C2482       C  0.02225945  0.38502907  0.72103673     0.29780
F2483       F  0.05057552  0.40034473  0.71985545    -0.19620
H2484       H  0.04438160  0.34119534  0.73473694     0.18140
H2485       H  0.94257928  0.39643137  0.71478466     0.18150
F2486       F  0.93696027  0.33624522  0.72851628    -0.19610
C2487       C  0.01014078  0.69805750  0.72347117    -0.21040
C2488       C  0.03846252  0.68033838  0.72362785    -0.09090
C2489       C  0.06629201  0.69539002  0.73505263     0.29770
C2490       C  0.06537500  0.72663709  0.74668110    -0.21040
C2491       C  0.03699147  0.74386598  0.74692684    -0.09100
C2492       C  0.00937600  0.72935317  0.73495029     0.29780
F2493       F  0.98156494  0.74545289  0.73458293    -0.19620
H2494       H  0.98821243  0.68741307  0.71525650     0.18140
H2495       H  0.08703913  0.73759310  0.75519000     0.18150
F2496       F  0.09433368  0.67973489  0.73607584    -0.19610
C2497       C  0.86514334  0.57004439  0.73632763    -0.21040
C2498       C  0.87766053  0.54305096  0.72112625    -0.09090
C2499       C  0.85798011  0.51603047  0.71819711     0.29770
C2500       C  0.82709372  0.51598298  0.73041307    -0.21040
C2501       C  0.81461408  0.54285251  0.74569771    -0.09100
C2502       C  0.83407800  0.56996028  0.74858269     0.29780
F2503       F  0.82286211  0.59663596  0.76260285    -0.19620
H2504       H  0.87987775  0.59084729  0.73989712     0.18140
H2505       H  0.81257949  0.49491298  0.72755805     0.18150
F2506       F  0.86878424  0.48930954  0.70386271    -0.19610
C2507       C  0.16670531  0.49982205  0.80501718    -0.21040
C2508       C  0.15716276  0.53100926  0.79749240    -0.09090
C2509       C  0.17270591  0.55665118  0.81191288     0.29770
C2510       C  0.19108841  0.55106798  0.83872848    -0.21040
C2511       C  0.19376697  0.52009129  0.85103043    -0.09100
C2512       C  0.18458559  0.49422811  0.83224540     0.29780
F2513       F  0.18887055  0.46389581  0.84227226    -0.19620
H2514       H  0.15636785  0.47962531  0.79280092     0.18140
H2515       H  0.20022805  0.57129992  0.85179861     0.18150
F2516       F  0.16606623  0.58709291  0.80366799    -0.19610
C2517       C  0.95555417  0.41414148  0.83751312    -0.21040
C2518       C  0.98261449  0.41704850  0.81851751    -0.09090
C2519       C  0.00521817  0.39277219  0.81788043     0.29770
C2520       C  0.00308716  0.36804422  0.83943423    -0.21040
C2521       C  0.97857376  0.36766107  0.86175620    -0.09100
C2522       C  0.95348620  0.38932493  0.85932904     0.29780
F2523       F  0.92926959  0.38885242  0.88047937    -0.19620
H2524       H  0.93775319  0.43263450  0.83769244     0.18140
H2525       H  0.02206436  0.35077781  0.84060698     0.18150
F2526       F  0.03070167  0.39448156  0.79834166    -0.19610
C2527       C  0.09456292  0.66654477  0.83379279    -0.21040
C2528       C  0.06828127  0.66555796  0.81329832    -0.09090
C2529       C  0.04540224  0.68961699  0.81473281     0.29770
C2530       C  0.04676336  0.71208160  0.83867373    -0.21040
C2531       C  0.07025588  0.71021800  0.86209020    -0.09100
C2532       C  0.09548423  0.68882385  0.85850305     0.29780
F2533       F  0.11821551  0.68637635  0.88127362    -0.19620
H2534       H  0.11207821  0.64779356  0.83321007     0.18140
H2535       H  0.02706471  0.72826540  0.84136469     0.18150
F2536       F  0.01925400  0.68861291  0.79589566    -0.19610
C2537       C  0.73170943  0.37345371  0.96600225    -0.21040
C2538       C  0.73219225  0.39082505  0.99466476    -0.09090
C2539       C  0.74257630  0.37478184  0.02248363     0.29770
C2540       C  0.75276568  0.34315893  0.02131370    -0.21040
C2541       C  0.75247155  0.32609536  0.99281228    -0.09100
C2542       C  0.74134445  0.34135045  0.96512576     0.29780
F2543       F  0.74003059  0.32529035  0.93720514    -0.19620
H2544       H  0.72428566  0.38483282  0.94414415     0.18140
H2545       H  0.76093826  0.33182050  0.04294532     0.18150
F2546       F  0.74428823  0.38986712  0.05094571    -0.19610
C2547       C  0.75550716  0.69038484  0.96001160    -0.21040
C2548       C  0.75073030  0.67218675  0.98777915    -0.09090
C2549       C  0.76040263  0.68563621  0.01704501     0.29770
C2550       C  0.77443486  0.71604615  0.01822315    -0.21040
C2551       C  0.77908772  0.73399659  0.99043717    -0.09100
C2552       C  0.76927195  0.72083508  0.96129641     0.29780
F2553       F  0.77281753  0.73761965  0.93399811    -0.19620
H2554       H  0.74906311  0.68074550  0.93701480     0.18140
H2555       H  0.78126915  0.72585129  0.04103327     0.18150
F2556       F  0.75767990  0.66889889  0.04446711    -0.19610
C2557       C  0.74020323  0.48665494  0.14714922    -0.21040
C2558       C  0.73876836  0.51649099  0.13184987    -0.09090
C2559       C  0.74943351  0.54330967  0.14909356     0.29770
C2560       C  0.76170729  0.54001506  0.18013060    -0.21040
C2561       C  0.76351386  0.51010709  0.19488449    -0.09100
C2562       C  0.75233266  0.48348347  0.17810161     0.29780
F2563       F  0.75321343  0.45427451  0.19171198    -0.19620
H2564       H  0.73263271  0.46536674  0.13481648     0.18140
H2565       H  0.76960378  0.56096675  0.19284579     0.18150
F2566       F  0.74930513  0.57260005  0.13564380    -0.19610
C2567       C  0.75113544  0.51802025  0.83646880    -0.21040
C2568       C  0.74479145  0.54720813  0.85153206    -0.09090
C2569       C  0.75087034  0.57539580  0.83431221     0.29770
C2570       C  0.76323523  0.57420904  0.80331325    -0.21040
C2571       C  0.77038853  0.54504014  0.78884310    -0.09100
C2572       C  0.76387753  0.51692571  0.80566347     0.29780
F2573       F  0.76996265  0.48829643  0.79223206    -0.19620
H2574       H  0.74761673  0.49589292  0.84911358     0.18140
H2575       H  0.76688849  0.59615411  0.79041227     0.18150
F2576       F  0.74510182  0.60420518  0.84750714    -0.19610
C2577       C  0.84605441  0.53269985  0.84593034    -0.21040
C2578       C  0.85070035  0.54981875  0.87417353    -0.09090
C2579       C  0.87980980  0.56385717  0.88095586     0.29770
C2580       C  0.90467738  0.55971144  0.86032706    -0.21040
C2581       C  0.90082022  0.54204122  0.83211858    -0.09100
C2582       C  0.87103811  0.52912472  0.82455883     0.29780
F2583       F  0.86629541  0.51272208  0.79720958    -0.19620
H2584       H  0.82367668  0.52092606  0.84130899     0.18140
H2585       H  0.92737860  0.56973301  0.86714226     0.18150
F2586       F  0.88507430  0.57879283  0.90913951    -0.19610
C2587       C  0.83621475  0.53036495  0.13763608    -0.21040
C2588       C  0.83413911  0.50747528  0.11348721    -0.09090
C2589       C  0.86035174  0.48882554  0.10603269     0.29770
C2590       C  0.88843597  0.49319428  0.12236619    -0.21040
C2591       C  0.89081857  0.51576155  0.14698955    -0.09100
C2592       C  0.86424563  0.53417295  0.15483533     0.29780
F2593       F  0.86528520  0.55583573  0.17870445    -0.19620
H2594       H  0.81641517  0.54580274  0.14258466     0.18140
H2595       H  0.90844852  0.47879160  0.11534070     0.18150
F2596       F  0.85962974  0.46807725  0.08132174    -0.19610
C2597       C  0.83477256  0.38910810  0.96521422    -0.21040
C2598       C  0.82568118  0.39847668  0.99602809    -0.09090
C2599       C  0.84242890  0.38665178  0.02228392     0.29770
C2600       C  0.86998395  0.36921872  0.01751843    -0.21040
C2601       C  0.88114705  0.36322695  0.98662205    -0.09100
C2602       C  0.86247927  0.37189706  0.96043664     0.29780
F2603       F  0.87212988  0.36599978  0.93026281    -0.19620
H2604       H  0.82172997  0.39709352  0.94451458     0.18140
H2605       H  0.88330980  0.36145918  0.03813959     0.18150
F2606       F  0.83368483  0.39384481  0.05243720    -0.19610
C2607       C  0.86399250  0.66075590  0.95686534    -0.21040
C2608       C  0.84882796  0.65230101  0.98505491    -0.09090
C2609       C  0.85551815  0.66895854  0.01325772     0.29770
C2610       C  0.88046268  0.69060995  0.01409360    -0.21040
C2611       C  0.89879072  0.69559693  0.98682825    -0.09100
C2612       C  0.88891777  0.68229142  0.95762607     0.29780
F2613       F  0.90469510  0.68818697  0.93017844    -0.19620
H2614       H  0.85857893  0.64856547  0.93481451     0.18140
H2615       H  0.88689963  0.70144187  0.03656351     0.18150
F2616       F  0.83945316  0.66258160  0.04043285    -0.19610
C2617       C  0.26084859  0.48722368  0.64363595    -0.21040
C2618       C  0.24981372  0.51454308  0.62766685    -0.09090
C2619       C  0.24820705  0.54323260  0.64503905     0.29770
C2620       C  0.25834787  0.54449524  0.67684327    -0.21040
C2621       C  0.26979602  0.51727057  0.69232127    -0.09100
C2622       C  0.27062185  0.48852443  0.67548605     0.29780
F2623       F  0.28077020  0.46156514  0.68989184    -0.19620
H2624       H  0.26275459  0.46479032  0.63122012     0.18140
H2625       H  0.25725826  0.56685312  0.68949713     0.18150
F2626       F  0.23803134  0.57045320  0.63112848    -0.19610
C2627       C  0.26844666  0.50162807  0.30220708    -0.21040
C2628       C  0.26640617  0.52796953  0.28197695    -0.09090
C2629       C  0.25374498  0.55643577  0.29393079     0.29770
C2630       C  0.24352842  0.55844610  0.32560898    -0.21040
C2631       C  0.24526008  0.53197813  0.34598074    -0.09100
C2632       C  0.25799350  0.50344800  0.33376212     0.29780
F2633       F  0.26155272  0.47749580  0.35256158    -0.19620
H2634       H  0.27772421  0.47937610  0.29339918     0.18140
H2635       H  0.23450652  0.58086022  0.33430230     0.18150
F2636       F  0.25123902  0.58231148  0.27486570    -0.19610
C2637       C  0.25967500  0.68433050  0.50902330    -0.21040
C2638       C  0.25056064  0.66829171  0.48097718    -0.09090
C2639       C  0.25337160  0.68487972  0.45185886     0.29770
C2640       C  0.26594253  0.71567439  0.45091077    -0.21040
C2641       C  0.27535816  0.73140171  0.47871780    -0.09100
C2642       C  0.27163349  0.71563351  0.50796284     0.29780
F2643       F  0.27944562  0.73053217  0.53548863    -0.19620
H2644       H  0.25812352  0.67245130  0.53179084     0.18140
H2645       H  0.26870897  0.72724061  0.42811806     0.18150
F2646       F  0.24502190  0.67114105  0.42386561    -0.19610
C2647       C  0.24044446  0.36860438  0.52202569    -0.21040
C2648       C  0.23978500  0.38744488  0.49437556    -0.09090
C2649       C  0.24797493  0.37307819  0.46519951     0.29770
C2650       C  0.25699625  0.34103441  0.46401357    -0.21040
C2651       C  0.25794552  0.32252088  0.49169685    -0.09100
C2652       C  0.24912632  0.33645767  0.52069673     0.29780
F2653       F  0.24926155  0.31905480  0.54783073    -0.19620
H2654       H  0.23491864  0.37900651  0.54487631     0.18140
H2655       H  0.26338175  0.33060731  0.44140057     0.18150
F2656       F  0.24922520  0.39043203  0.43804046    -0.19610
C2657       C  0.49732453  0.72535408  0.74008093    -0.21040
C2658       C  0.52651623  0.73849153  0.73061549    -0.09090
C2659       C  0.55387349  0.71993017  0.73379639     0.29770
C2660       C  0.55221583  0.68925577  0.74662689    -0.21040
C2661       C  0.52304763  0.67550536  0.75575943    -0.09100
C2662       C  0.49544868  0.69409290  0.75213384     0.29780
F2663       F  0.46666141  0.68216022  0.76009190    -0.19620
H2664       H  0.47596473  0.73943178  0.73824976     0.18140
H2665       H  0.57399595  0.67584136  0.74838997     0.18150
F2666       F  0.58243342  0.73164556  0.72473484    -0.19610
C2667       C  0.67391825  0.51492289  0.75780619    -0.21040
C2668       C  0.65889999  0.54434855  0.76310801    -0.09090
C2669       C  0.67689366  0.57227000  0.75795446     0.29770
C2670       C  0.70824801  0.57060453  0.74694705    -0.21040
C2671       C  0.72268550  0.54129501  0.74064157    -0.09100
C2672       C  0.70539503  0.51337002  0.74690059     0.29780
F2673       F  0.71903962  0.48452822  0.74291789    -0.19620
H2674       H  0.66103790  0.49293606  0.76134316     0.18140
H2675       H  0.72138641  0.59241463  0.74319805     0.18150
F2676       F  0.66407833  0.60140265  0.76270443    -0.19610
C2677       C  0.36008887  0.54769305  0.75162360    -0.21040
C2678       C  0.37679010  0.51923993  0.75706095    -0.09090
C2679       C  0.36015131  0.49028367  0.75325012     0.29770
C2680       C  0.32822931  0.48998132  0.74351546    -0.21040
C2681       C  0.31214471  0.51838061  0.73689924    -0.09100
C2682       C  0.32827220  0.54729424  0.74152990     0.29780
F2683       F  0.31332097  0.57522140  0.73580311    -0.19620
H2684       H  0.37210492  0.57036258  0.75368607     0.18140
H2685       H  0.31608322  0.46744825  0.74095879     0.18150
F2686       F  0.37487277  0.46211934  0.75836137    -0.19610
C2687       C  0.48147220  0.37828018  0.75870893    -0.21040
C2688       C  0.50991822  0.39549038  0.76307255    -0.09090
C2689       C  0.53858634  0.38017665  0.75516425     0.29770
C2690       C  0.53851630  0.34899647  0.74294944    -0.21040
C2691       C  0.51001518  0.33225673  0.73821613    -0.09100
C2692       C  0.48148508  0.34717947  0.74657010     0.29780
F2693       F  0.45350702  0.33162826  0.74286857    -0.19620
H2694       H  0.45891536  0.38927526  0.76392498     0.18140
H2695       H  0.56085949  0.33782294  0.73728429     0.18150
F2696       F  0.56664571  0.39580187  0.75766338    -0.19610
C2697       C  0.36331658  0.48288226  0.61993661    -0.21040
C2698       C  0.37155168  0.48992794  0.58846512    -0.09090
C2699       C  0.40335677  0.49509823  0.58034980     0.29770
C2700       C  0.42604252  0.49741008  0.60409245    -0.21040
C2701       C  0.41720324  0.49425236  0.63594670    -0.09100
C2702       C  0.38621548  0.48500595  0.64381930     0.29780
F2703       F  0.37737081  0.48161108  0.67462678    -0.19620
H2704       H  0.33879163  0.47886877  0.62638642     0.18140
H2705       H  0.45012538  0.50375254  0.59779374     0.18150
F2706       F  0.41192843  0.50063604  0.54975195    -0.19610
C2707       C  0.78085029  0.67310408  0.46572936    -0.21040
C2708       C  0.79149599  0.65802582  0.49371017    -0.09090
C2709       C  0.79215643  0.67612672  0.52205100     0.29770
C2710       C  0.78188035  0.70775883  0.52232728    -0.21040
C2711       C  0.77082317  0.72250576  0.49454700    -0.09100
C2712       C  0.77059175  0.70491386  0.46611447     0.29780
F2713       F  0.76055867  0.71849538  0.43864905    -0.19620
H2714       H  0.77948991  0.65998556  0.44363555     0.18140
H2715       H  0.78257723  0.72091876  0.54443864     0.18150
F2716       F  0.80220826  0.66322958  0.54986539    -0.19610
C2717       C  0.79408375  0.55939829  0.65062734    -0.21040
C2718       C  0.78842909  0.53138187  0.63320123    -0.09090
C2719       C  0.77175707  0.50651354  0.64836944     0.29770
C2720       C  0.76081759  0.50992917  0.67975173    -0.21040
C2721       C  0.76626442  0.53803824  0.69695513    -0.09100
C2722       C  0.78320942  0.56274209  0.68197193     0.29780
F2723       F  0.78814045  0.59069591  0.69726852    -0.19620
H2724       H  0.80611367  0.57927243  0.63959257     0.18140
H2725       H  0.74832369  0.49035125  0.69069659     0.18150
F2726       F  0.76467736  0.47935250  0.63247271    -0.19610
C2727       C  0.76907371  0.36499777  0.51635229    -0.21040
C2728       C  0.77957317  0.37815349  0.48746000    -0.09090
C2729       C  0.77649073  0.35951590  0.45969741     0.29770
C2730       C  0.76327031  0.32888919  0.46097256    -0.21040
C2731       C  0.75241839  0.31597145  0.48976027    -0.09100
C2732       C  0.75552865  0.33444686  0.51753796     0.29780
F2733       F  0.74673377  0.32256412  0.54612208    -0.19620
H2734       H  0.77028950  0.37884938  0.53801071     0.18140
H2735       H  0.76188874  0.31490512  0.43940177     0.18150
F2736       F  0.78606644  0.37096469  0.43113498    -0.19610
C2737       C  0.75542990  0.52822629  0.30562040    -0.21040
C2738       C  0.76024027  0.50125112  0.28672705    -0.09090
C2739       C  0.77509213  0.47463092  0.30050489     0.29770
C2740       C  0.78414596  0.47490737  0.33280133    -0.21040
C2741       C  0.77970567  0.50215972  0.35163446    -0.09100
C2742       C  0.76527494  0.52889116  0.33750252     0.29780
F2743       F  0.75899132  0.55517586  0.35504252    -0.19620
H2744       H  0.74412516  0.54899250  0.29551866     0.18140
H2745       H  0.79444774  0.45376722  0.34317666     0.18150
F2746       F  0.78040978  0.44823959  0.28284165    -0.19610
C2747       C  0.65344753  0.57722705  0.60251432    -0.21040
C2748       C  0.68500537  0.57286736  0.61160535    -0.09090
C2749       C  0.69416443  0.57693543  0.64329358     0.29770
C2750       C  0.67098015  0.57987078  0.66659530    -0.21040
C2751       C  0.63907978  0.57945910  0.65768100    -0.09100
C2752       C  0.63045244  0.58087823  0.62552608     0.29780
F2753       F  0.59947421  0.58130957  0.61664994    -0.19620
H2754       H  0.64632994  0.57487609  0.57783711     0.18140
H2755       H  0.67764538  0.57906095  0.69133553     0.18150
F2756       F  0.72487565  0.57444404  0.65185060    -0.19610
C2757       C  0.67897236  0.78226169  0.51977611    -0.21040
C2758       C  0.66444308  0.79041624  0.49061203    -0.09090
C2759       C  0.68227981  0.78628757  0.46255427     0.29770
C2760       C  0.71336538  0.77419421  0.46389788    -0.21040
C2761       C  0.72742045  0.76588469  0.49308673    -0.09100
C2762       C  0.70985719  0.77012836  0.52100510     0.29780
F2763       F  0.72280643  0.76282165  0.54964983    -0.19620
H2764       H  0.66615986  0.78457759  0.54189520     0.18140
H2765       H  0.72670557  0.77182148  0.44210930     0.18150
F2766       F  0.66967777  0.79344899  0.43373253    -0.19610
C2767       C  0.55694732  0.80124999  0.63932399    -0.21040
C2768       C  0.52905624  0.79922144  0.62090771    -0.09090
C2769       C  0.50122657  0.78803698  0.63585094     0.29770
C2770       C  0.50167898  0.77869423  0.66795660    -0.21040
C2771       C  0.52958831  0.78073607  0.68609176    -0.09100
C2772       C  0.55722501  0.79231373  0.67145924     0.29780
F2773       F  0.58465910  0.79465443  0.68822923    -0.19620
H2774       H  0.57886858  0.80928557  0.62866836     0.18140
H2775       H  0.48008299  0.77002893  0.67879355     0.18150
F2776       F  0.47385444  0.78462931  0.61916578    -0.19610
C2777       C  0.36501648  0.79265264  0.44354547    -0.21040
C2778       C  0.38347240  0.79681391  0.47124024    -0.09090
C2779       C  0.36924047  0.78969644  0.50080179     0.29770
C2780       C  0.33787705  0.77844451  0.50235156    -0.21040
C2781       C  0.31972457  0.77417585  0.47467691    -0.09100
C2782       C  0.33351514  0.78176772  0.44522124     0.29780
F2783       F  0.31646801  0.77853384  0.41800390    -0.19620
H2784       H  0.37522356  0.79722243  0.42040963     0.18140
H2785       H  0.32758286  0.77336365  0.52533660     0.18150
F2786       F  0.38606336  0.79201400  0.52825532    -0.19610
C2787       C  0.49003910  0.76460821  0.29489945    -0.21040
C2788       C  0.51902105  0.76189784  0.27900868    -0.09090
C2789       C  0.54654607  0.77337755  0.29415627     0.29770
C2790       C  0.54493879  0.78738017  0.32451019    -0.21040
C2791       C  0.51580419  0.79045160  0.34054807    -0.09100
C2792       C  0.48826428  0.77875070  0.32504910     0.29780
F2793       F  0.45939644  0.78055202  0.33903055    -0.19620
H2794       H  0.46844884  0.75657032  0.28342417     0.18140
H2795       H  0.56671865  0.79521423  0.33573419     0.18150
F2796       F  0.57497391  0.77142132  0.27933601    -0.19610
C2797       C  0.37865023  0.69588185  0.44337157    -0.21040
C2798       C  0.40933013  0.68413008  0.44822029    -0.09090
C2799       C  0.41508460  0.65151297  0.44801271     0.29770
C2800       C  0.38979554  0.63072187  0.44698786    -0.21040
C2801       C  0.35870130  0.64233704  0.44636100    -0.09100
C2802       C  0.35315959  0.67478464  0.44239329     0.29780
F2803       F  0.32334246  0.68610851  0.44090587    -0.19620
H2804       H  0.37427212  0.72121244  0.44301731     0.18140
H2805       H  0.39436950  0.60559451  0.44986232     0.18150
F2806       F  0.44492378  0.63990945  0.45126777    -0.19610
C2807       C  0.51567925  0.70610393  0.63469233    -0.21040
C2808       C  0.54332079  0.70955093  0.61667462    -0.09090
C2809       C  0.57161050  0.69532709  0.62704647     0.29770
C2810       C  0.57081518  0.67392800  0.65237267    -0.21040
C2811       C  0.54188281  0.66693562  0.66710136    -0.09100
C2812       C  0.51494983  0.68502351  0.65996499     0.29780
F2813       F  0.48703025  0.67952970  0.67496867    -0.19620
H2814       H  0.49386235  0.71753523  0.62740742     0.18140
H2815       H  0.59179846  0.66017038  0.65784846     0.18150
F2816       F  0.59878827  0.69863201  0.61019774    -0.19610
C2817       C  0.65807214  0.68496064  0.53988560    -0.21040
C2818       C  0.65328153  0.70132239  0.51123808    -0.09090
C2819       C  0.67436227  0.69717534  0.48592851     0.29770
C2820       C  0.69738741  0.67388455  0.48775556    -0.21040
C2821       C  0.69948477  0.65459284  0.51472623    -0.09100
C2822       C  0.68111293  0.66131720  0.54162039     0.29780
F2823       F  0.68223694  0.64220241  0.56759564    -0.19620
H2824       H  0.64176341  0.68788468  0.55948531     0.18140
H2825       H  0.71129813  0.66864006  0.46682863     0.18150
F2826       F  0.67041283  0.71317434  0.45819681    -0.19610
C2827       C  0.70085919  0.52593653  0.23006934    -0.21040
C2828       C  0.71653657  0.49979102  0.24351174    -0.09090
C2829       C  0.69989701  0.47095985  0.24628788     0.29770
C2830       C  0.66811977  0.46860667  0.23628070    -0.21040
C2831       C  0.65202527  0.49500084  0.22340498    -0.09100
C2832       C  0.66926962  0.52364474  0.21985087     0.29780
F2833       F  0.65538482  0.55008708  0.20781087    -0.19620
H2834       H  0.71319392  0.54838292  0.22759264     0.18140
H2835       H  0.65576394  0.44630209  0.23971349     0.18150
F2836       F  0.71436264  0.44502002  0.25871343    -0.19610
C2837       C  0.35630938  0.49734741  0.22207074    -0.21040
C2838       C  0.37124460  0.52617213  0.21365808    -0.09090
C2839       C  0.35319025  0.55430104  0.21537356     0.29770
C2840       C  0.32195392  0.55363685  0.22684910    -0.21040
C2841       C  0.30788515  0.52510523  0.23680841    -0.09100
C2842       C  0.32502316  0.49677988  0.23335719     0.29780
F2843       F  0.31151527  0.46852268  0.24099104    -0.19620
H2844       H  0.36922462  0.47518776  0.22106279     0.18140
H2845       H  0.30880118  0.57562717  0.22842023     0.18150
F2846       F  0.36601018  0.58274180  0.20723532    -0.19610
C2847       C  0.48485276  0.35680264  0.21755448    -0.21040
C2848       C  0.51433186  0.37257273  0.21956807    -0.09090
C2849       C  0.54043153  0.35512987  0.23163301     0.29770
C2850       C  0.53671787  0.32378627  0.24234217    -0.21040
C2851       C  0.50726460  0.30849021  0.24091364    -0.09100
C2852       C  0.48138224  0.32511232  0.22785532     0.29780
F2853       F  0.45266462  0.31077085  0.22528227    -0.19620
H2854       H  0.46417072  0.36927148  0.20884072     0.18140
H2855       H  0.55711863  0.31122247  0.25161640     0.18150
F2856       F  0.56962714  0.36851109  0.23413475    -0.19610
C2857       C  0.54525576  0.69911387  0.23687671    -0.21040
C2858       C  0.51792609  0.71802971  0.23555271    -0.09090
C2859       C  0.48993183  0.70459126  0.22324960     0.29770
C2860       C  0.48930808  0.67297444  0.21267382    -0.21040
C2861       C  0.51654431  0.65366346  0.21409925    -0.09100
C2862       C  0.54470847  0.66735144  0.22631405     0.29780
F2863       F  0.57148665  0.64982412  0.22927713    -0.19620
H2864       H  0.56714604  0.70902745  0.24606502     0.18140
H2865       H  0.46708512  0.66338360  0.20397350     0.18150
F2866       F  0.46299354  0.72205312  0.22171240    -0.19610
C2867       C  0.33968858  0.57588286  0.33335348    -0.21040
C2868       C  0.34876977  0.57072874  0.36492682    -0.09090
C2869       C  0.38080953  0.57150694  0.37371018     0.29770
C2870       C  0.40371822  0.57250805  0.35049162    -0.21040
C2871       C  0.39470423  0.57206236  0.31854279    -0.09100
C2872       C  0.36301137  0.57684720  0.30994241     0.29780
F2873       F  0.35454962  0.57905778  0.27908838    -0.19620
H2874       H  0.31490398  0.57605749  0.32662296     0.18140
H2875       H  0.42834444  0.56957571  0.35731382     0.18150
F2876       F  0.38988934  0.56713439  0.40437545    -0.19610
C2877       C  0.47264397  0.68022797  0.34829517    -0.21040
C2878       C  0.50244994  0.69309258  0.35586105    -0.09090
C2879       C  0.52817447  0.68807187  0.33557479     0.29770
C2880       C  0.52510967  0.66709849  0.31033205    -0.21040
C2881       C  0.49652223  0.65073985  0.30535353    -0.09100
C2882       C  0.46964153  0.65887274  0.32307534     0.29780
F2883       F  0.44187030  0.64302462  0.31894824    -0.19620
H2884       H  0.45248486  0.68440062  0.36360102     0.18140
H2885       H  0.54602758  0.66101920  0.29680368     0.18150
F2886       F  0.55679415  0.70167268  0.34151736    -0.19610
C2887       C  0.60499504  0.48167946  0.37611520    -0.21040
C2888       C  0.61343373  0.47866729  0.34412355    -0.09090
C2889       C  0.64526439  0.47490190  0.33558009     0.29770
C2890       C  0.66876036  0.47704392  0.35879177    -0.21040
C2891       C  0.66033354  0.48323343  0.39034223    -0.09100
C2892       C  0.62839828  0.48389513  0.39926326     0.29780
F2893       F  0.62000991  0.48854072  0.43003675    -0.19620
H2894       H  0.58040035  0.48456379  0.38282473     0.18140
H2895       H  0.69345114  0.47656734  0.35179451     0.18150
F2896       F  0.65372184  0.47293897  0.30461712    -0.19610
C2897       C  0.48331943  0.28010183  0.67781729    -0.21040
C2898       C  0.51128747  0.28918792  0.69366880    -0.09090
C2899       C  0.54031792  0.28489626  0.67809536     0.29770
C2900       C  0.54123394  0.27231429  0.64718168    -0.21040
C2901       C  0.51324208  0.26333620  0.63094401    -0.09100
C2902       C  0.48414838  0.26729343  0.64695193     0.29780
F2903       F  0.45630021  0.25992064  0.63248857    -0.19620
H2904       H  0.46071385  0.28254561  0.68965579     0.18140
H2905       H  0.56404085  0.27011171  0.63569722     0.18150
F2906       F  0.56790034  0.29230486  0.69303351    -0.19610
C2907       C  0.47173697  0.25749643  0.33254768    -0.21040
C2908       C  0.49845388  0.24641721  0.34948364    -0.09090
C2909       C  0.52746158  0.24423663  0.33297263     0.29770
C2910       C  0.52951685  0.25340288  0.30086105    -0.21040
C2911       C  0.50297606  0.26541393  0.28459186    -0.09100
C2912       C  0.47401496  0.26720063  0.30074570     0.29780
F2913       F  0.44779535  0.27830490  0.28572268    -0.19620
H2914       H  0.44907316  0.25989595  0.34425960     0.18140
H2915       H  0.55197784  0.25138981  0.28866685     0.18150
F2916       F  0.55400176  0.23371792  0.34785866    -0.19610
C2917       C  0.31278327  0.26872557  0.45932486    -0.21040
C2918       C  0.29958052  0.27754848  0.48856871    -0.09090
C2919       C  0.31722697  0.27232578  0.51650676     0.29770
C2920       C  0.34806841  0.25992022  0.51487957    -0.21040
C2921       C  0.36200489  0.25238950  0.48538653    -0.09100
C2922       C  0.34346395  0.25623608  0.45761996     0.29780
F2923       F  0.35510472  0.24866433  0.42857678    -0.19620
H2924       H  0.29910508  0.27145986  0.43766612     0.18140
H2925       H  0.36155086  0.25766326  0.53669899     0.18150
F2926       F  0.30517334  0.28044363  0.54521186    -0.19610
C2927       C  0.65858390  0.25362568  0.47159993    -0.21040
C2928       C  0.64328783  0.25523444  0.50132242    -0.09090
C2929       C  0.66153963  0.26494216  0.52785594     0.29770
C2930       C  0.69358701  0.27346963  0.52441686    -0.21040
C2931       C  0.70833520  0.27296160  0.49453833    -0.09100
C2932       C  0.69056256  0.26245050  0.46820976     0.29780
F2933       F  0.70403041  0.26130143  0.43899497    -0.19620
H2934       H  0.64542109  0.24684171  0.45052246     0.18140
H2935       H  0.70689530  0.28028743  0.54532291     0.18150
F2936       F  0.64838638  0.26673275  0.55718653    -0.19610
C2937       C  0.50384352  0.33906188  0.33312561    -0.21040
C2938       C  0.47700967  0.34020183  0.35273762    -0.09090
C2939       C  0.45745925  0.36693564  0.35197831     0.29770
C2940       C  0.46781474  0.39421802  0.33651235    -0.21040
C2941       C  0.49738167  0.39477145  0.32116071    -0.09100
C2942       C  0.51442288  0.36641301  0.31782931     0.29780
F2943       F  0.54300602  0.36595805  0.30321118    -0.19620
H2944       H  0.51939751  0.31864689  0.33396934     0.18140
H2945       H  0.45360419  0.41550443  0.33838452     0.18150
F2946       F  0.43152478  0.36862151  0.37092637    -0.19610
C2947       C  0.39622433  0.38370105  0.45610154    -0.21040
C2948       C  0.38328851  0.35472121  0.46580052    -0.09090
C2949       C  0.35564662  0.35443492  0.48391871     0.29770
C2950       C  0.34131493  0.38253475  0.49303569    -0.21040
C2951       C  0.35525270  0.41169499  0.48530789    -0.09100
C2952       C  0.38288447  0.41211943  0.46646655     0.29780
F2953       F  0.39805589  0.43966178  0.45944256    -0.19620
H2954       H  0.41822670  0.38433188  0.44294294     0.18140
H2955       H  0.31982220  0.38132401  0.50699943     0.18150
F2956       F  0.34374792  0.32691066  0.49469967    -0.19610
C2957       C  0.48258379  0.37594281  0.62246275    -0.21040
C2958       C  0.51110977  0.36238778  0.61180013    -0.09090
C2959       C  0.53933277  0.36857993  0.62845840     0.29770
C2960       C  0.53958393  0.39166262  0.65213548    -0.21040
C2961       C  0.51174715  0.40827024  0.65946555    -0.09100
C2962       C  0.48285595  0.39893217  0.64599320     0.29780
F2963       F  0.45555288  0.41454078  0.65268405    -0.19620
H2964       H  0.46019903  0.37062387  0.61093661     0.18140
H2965       H  0.56191384  0.39815888  0.66317213     0.18150
F2966       F  0.56701385  0.35453881  0.62020888    -0.19610
C2967       C  0.64277866  0.36266632  0.51694595    -0.21040
C2968       C  0.61773136  0.36610111  0.49524851    -0.09090
C2969       C  0.62199263  0.38467156  0.46764845     0.29770
C2970       C  0.64985591  0.40148986  0.46335305    -0.21040
C2971       C  0.67318183  0.40075829  0.48681084    -0.09100
C2972       C  0.67034523  0.38034268  0.51298192     0.29780
F2973       F  0.69308548  0.37961081  0.53586679    -0.19620
H2974       H  0.64034639  0.34782304  0.53783209     0.18140
H2975       H  0.65179844  0.41762630  0.44335298     0.18150
F2976       F  0.59882901  0.38791474  0.44544001    -0.19610
loop_ 
_geom_bond_atom_site_label_1 
_geom_bond_atom_site_label_2 
_geom_bond_distance 
_geom_bond_site_symmetry_2 
_ccdc_geom_bond_type 
O1          Zr13   2.403       .  S
O1            C3   1.276       .  A
O2          Zr39   2.406       .  S
O2            C3   1.280       .  A
C3         C2968   1.460       .  S
O4          Zr16   2.412       .  S
O4            C6   1.271       .  A
O5          Zr40   2.422       .  S
O5            C6   1.277       .  A
C6         C2948   1.454       .  S
O7          Zr16   2.409       .  S
O7            C9   1.283       .  A
O8          Zr39   2.422       .  S
O8            C9   1.286       .  A
C9         C2958   1.467       .  S
O10         Zr13   2.395       .  S
O10          C12   1.280       .  A
O11         Zr40   2.416       .  S
O11          C12   1.283       .  A
C12        C2938   1.448       .  S
Zr13         O14   2.435       .  S
Zr13         O15   2.439       .  S
Zr13         O19   2.363       .  S
Zr13         O20   2.351       .  S
Zr13         O43   2.345       .  S
Zr13         O45   2.342       .  S
O14          H57   0.990       .  S
O15          H56   0.990       .  S
O15          H60   0.990       .  S
Zr16         O17   2.443       .  S
Zr16         O18   2.435       .  S
Zr16         O20   2.364       .  S
Zr16         O19   2.354       .  S
Zr16         O44   2.359       .  S
Zr16         O46   2.358       .  S
O17          H58   0.988       .  S
O17          H61   0.989       .  S
O18          H51   0.990       .  S
O19         Zr39   2.390       .  S
O20         Zr40   2.405       .  S
O20          H47   0.965       .  S
O21         Zr33   2.499       .  S
O21          C23   1.298       .  A
O22         Zr40   2.420       .  S
O22          C23   1.285       .  A
C23        C2908   1.503       .  S
O24         Zr36   2.513       .  S
O24          C26   1.301       .  A
O25         Zr39   2.411       .  S
O25          C26   1.284       .  A
C26        C2901   1.503       .  S
O27         Zr36   2.491       .  S
O27          C29   1.297       .  A
O28         Zr40   2.423       .  S
O28          C29   1.286       .  A
C29        C2921   1.498       .  S
O30         Zr33   2.496       .  S
O30          C32   1.298       .  A
O31         Zr39   2.433       .  S
O31          C32   1.289       .  A
C32        C2928   1.504       .  S
Zr33         O34   2.438       .  S
Zr33         O35   2.435       .  S
Zr33         O41   2.408       .  S
Zr33         O42   2.402       .  S
Zr33         O45   2.379       .  S
Zr33         O43   2.359       .  S
O34          H54   0.989       .  S
O34          H59   0.989       .  S
O35          H55   0.990       .  S
Zr36         O37   2.434       .  S
Zr36         O38   2.438       .  S
Zr36         O42   2.396       .  S
Zr36         O41   2.407       .  S
Zr36         O46   2.366       .  S
Zr36         O44   2.372       .  S
O37          H53   0.990       .  S
O38          H52   0.990       .  S
O38          H62   0.990       .  S
Zr39         O42   2.392       .  S
Zr39         O44   2.386       .  S
Zr39         O45   2.388       .  S
Zr40         O41   2.411       .  S
Zr40         O43   2.370       .  S
Zr40         O46   2.381       .  S
O41          H49   0.965       .  S
O44          H48   0.960       .  S
O45          H50   0.962       .  S
O63         Zr75   2.421       .  S
O63          C65   1.284       .  A
O64        Zr101   2.400       .  S
O64          C65   1.281       .  A
C65        C2888   1.449       .  S
O66         Zr78   2.435       .  S
O66          C68   1.288       .  A
O67        Zr102   2.389       .  S
O67          C68   1.277       .  A
C68        C2871   1.446       .  S
O69         Zr78   2.415       .  S
O69          C71   1.280       .  A
O70        Zr101   2.418       .  S
O70          C71   1.282       .  A
C71        C2941   1.467       .  S
O72         Zr75   2.404       .  S
O72          C74   1.282       .  A
O73        Zr102   2.424       .  S
O73          C74   1.285       .  A
C74        C2881   1.457       .  S
Zr75         O76   2.434       .  S
Zr75         O77   2.437       .  S
Zr75         O81   2.351       .  S
Zr75         O82   2.343       .  S
Zr75        O105   2.355       .  S
Zr75        O107   2.336       .  S
O76         H119   0.990       .  S
O77         H118   0.990       .  S
O77         H122   0.990       .  S
Zr78         O79   2.438       .  S
Zr78         O80   2.437       .  S
Zr78         O82   2.360       .  S
Zr78         O81   2.365       .  S
Zr78        O106   2.359       .  S
Zr78        O108   2.336       .  S
O79         H120   0.990       .  S
O79         H123   0.990       .  S
O80         H113   0.990       .  S
O81        Zr101   2.390       .  S
O82        Zr102   2.396       .  S
O82         H109   0.965       .  S
O83         Zr95   2.504       .  S
O83          C85   1.297       .  A
O84        Zr102   2.412       .  S
O84          C85   1.282       .  A
C85        C2861   1.505       .  S
O86         Zr98   2.514       .  S
O86          C88   1.300       .  A
O87        Zr101   2.408       .  S
O87          C88   1.283       .  A
C88        C2848   1.507       .  S
O89         Zr98   2.493       .  S
O89          C91   1.297       .  A
O90        Zr102   2.440       .  S
O90          C91   1.288       .  A
C91        C2838   1.501       .  S
O92         Zr95   2.483       .  S
O92          C94   1.296       .  A
O93        Zr101   2.445       .  S
O93          C94   1.291       .  A
C94        C2831   1.503       .  S
Zr95         O96   2.438       .  S
Zr95         O97   2.434       .  S
Zr95        O103   2.407       .  S
Zr95        O104   2.403       .  S
Zr95        O107   2.389       .  S
Zr95        O105   2.355       .  S
O96         H116   0.989       .  S
O96         H121   0.989       .  S
O97         H117   0.990       .  S
Zr98         O99   2.434       .  S
Zr98        O100   2.438       .  S
Zr98        O104   2.401       .  S
Zr98        O103   2.410       .  S
Zr98        O108   2.367       .  S
Zr98        O106   2.366       .  S
O99         H115   0.990       .  S
O100        H114   0.990       .  S
O100        H124   0.990       .  S
Zr101       O104   2.392       .  S
Zr101       O106   2.397       .  S
Zr101       O107   2.383       .  S
Zr102       O103   2.403       .  S
Zr102       O105   2.372       .  S
Zr102       O108   2.371       .  S
O103        H111   0.965       .  S
O106        H110   0.963       .  S
O107        H112   0.963       .  S
O125       Zr137   2.451       .  S
O125        C127   1.291       .  A
O126       Zr163   2.391       .  S
O126        C127   1.279       .  A
C127       C2878   1.458       .  S
O128       Zr140   2.428       .  S
O128        C130   1.287       .  A
O129       Zr164   2.400       .  S
O129        C130   1.281       .  A
C130       C2808   1.460       .  S
O131       Zr140   2.437       .  S
O131        C133   1.289       .  A
O132       Zr163   2.370       .  S
O132        C133   1.275       .  A
C133       C2798   1.441       .  S
O134       Zr137   2.428       .  S
O134        C136   1.287       .  A
O135       Zr164   2.397       .  S
O135        C136   1.280       .  A
C136       C2818   1.455       .  S
Zr137       O138   2.435       .  S
Zr137       O139   2.436       .  S
Zr137       O143   2.351       .  S
Zr137       O144   2.362       .  S
Zr137       O167   2.358       .  S
Zr137       O169   2.347       .  S
O138        H181   0.990       .  S
O139        H180   0.990       .  S
O139        H184   0.990       .  S
Zr140       O141   2.436       .  S
Zr140       O142   2.437       .  S
Zr140       O144   2.355       .  S
Zr140       O143   2.357       .  S
Zr140       O168   2.345       .  S
Zr140       O170   2.357       .  S
O141        H182   0.990       .  S
O141        H185   0.990       .  S
O142        H175   0.990       .  S
O143       Zr163   2.389       .  S
O144       Zr164   2.392       .  S
O144        H171   0.966       .  S
O145       Zr157   2.506       .  S
O145        C147   1.298       .  A
O146       Zr164   2.414       .  S
O146        C147   1.283       .  A
C147       C2758   1.505       .  S
O148       Zr160   2.495       .  S
O148        C150   1.297       .  A
O149       Zr163   2.433       .  S
O149        C150   1.287       .  A
C150       C2778   1.502       .  S
O151       Zr160   2.495       .  S
O151        C153   1.296       .  A
O152       Zr164   2.418       .  S
O152        C153   1.284       .  A
C153       C2768   1.500       .  S
O154       Zr157   2.507       .  S
O154        C156   1.299       .  A
O155       Zr163   2.414       .  S
O155        C156   1.282       .  A
C156       C2791   1.506       .  S
Zr157       O158   2.435       .  S
Zr157       O159   2.436       .  S
Zr157       O165   2.409       .  S
Zr157       O166   2.410       .  S
Zr157       O169   2.376       .  S
Zr157       O167   2.363       .  S
O158        H178   0.990       .  S
O158        H183   0.990       .  S
O159        H179   0.990       .  S
Zr160       O161   2.435       .  S
Zr160       O162   2.438       .  S
Zr160       O166   2.404       .  S
Zr160       O165   2.408       .  S
Zr160       O170   2.361       .  S
Zr160       O168   2.382       .  S
O161        H177   0.990       .  S
O162        H176   0.990       .  S
O162        H186   0.990       .  S
Zr163       O166   2.376       .  S
Zr163       O168   2.376       .  S
Zr163       O169   2.382       .  S
Zr164       O165   2.392       .  S
Zr164       O167   2.370       .  S
Zr164       O170   2.365       .  S
O165        H173   0.966       .  S
O168        H172   0.962       .  S
O169        H174   0.961       .  S
O187       Zr199   2.407       .  S
O187        C189   1.282       .  A
O188       Zr225   2.407       .  S
O188        C189   1.282       .  A
C189       C2971   1.440       .  S
O190       Zr202   2.424       .  S
O190        C192   1.286       .  A
O191       Zr226   2.401       .  S
O191        C192   1.280       .  A
C192       C2821   1.451       .  S
O193       Zr202   2.436       .  S
O193        C195   1.287       .  A
O194       Zr225   2.385       .  S
O194        C195   1.278       .  A
C195       C2891   1.449       .  S
O196       Zr199   2.430       .  S
O196        C198   1.287       .  A
O197       Zr226   2.394       .  S
O197        C198   1.278       .  A
C198       C2748   1.446       .  S
Zr199       O200   2.434       .  S
Zr199       O201   2.435       .  S
Zr199       O205   2.360       .  S
Zr199       O206   2.353       .  S
Zr199       O229   2.340       .  S
Zr199       O231   2.357       .  S
O200        H243   0.990       .  S
O201        H242   0.990       .  S
O201        H246   0.990       .  S
Zr202       O203   2.437       .  S
Zr202       O204   2.436       .  S
Zr202       O206   2.343       .  S
Zr202       O205   2.354       .  S
Zr202       O230   2.339       .  S
Zr202       O232   2.358       .  S
O203        H244   0.990       .  S
O203        H247   0.990       .  S
O204        H237   0.990       .  S
O205       Zr225   2.387       .  S
O206       Zr226   2.390       .  S
O206        H233   0.965       .  S
O207       Zr219   2.509       .  S
O207        C209   1.300       .  A
O208       Zr226   2.424       .  S
O208        C209   1.284       .  A
C209       C2718   1.500       .  S
O210       Zr222   2.494       .  S
O210        C212   1.298       .  A
O211       Zr225   2.440       .  S
O211        C212   1.288       .  A
C212       C2741   1.494       .  S
O213       Zr222   2.508       .  S
O213        C215   1.298       .  A
O214       Zr226   2.405       .  S
O214        C215   1.279       .  A
C215       C2708   1.503       .  S
O216       Zr219   2.512       .  S
O216        C218   1.300       .  A
O217       Zr225   2.406       .  S
O217        C218   1.281       .  A
C218       C2728   1.498       .  S
Zr219       O220   2.436       .  S
Zr219       O221   2.436       .  S
Zr219       O227   2.408       .  S
Zr219       O228   2.407       .  S
Zr219       O231   2.370       .  S
Zr219       O229   2.365       .  S
O220        H240   0.990       .  S
O220        H245   0.990       .  S
O221        H241   0.990       .  S
Zr222       O223   2.434       .  S
Zr222       O224   2.437       .  S
Zr222       O228   2.406       .  S
Zr222       O227   2.409       .  S
Zr222       O232   2.359       .  S
Zr222       O230   2.389       .  S
O223        H239   0.990       .  S
O224        H238   0.990       .  S
O224        H248   0.990       .  S
Zr225       O228   2.381       .  S
Zr225       O230   2.379       .  S
Zr225       O231   2.386       .  S
Zr226       O227   2.392       .  S
Zr226       O229   2.366       .  S
Zr226       O232   2.375       .  S
O227        H235   0.966       .  S
O230        H234   0.963       .  S
O231        H236   0.962       .  S
O249       Zr261   2.431       .  S
O249        C251   1.287       .  A
O250       Zr287   2.389       .  S
O250        C251   1.278       .  A
C251       C2701   1.453       .  S
O252       Zr264   2.422       .  S
O252        C254   1.286       .  A
O253       Zr288   2.397       .  S
O253        C254   1.279       .  A
C254       C2751   1.443       .  S
O255       Zr264   2.415       .  S
O255        C257   1.284       .  A
O256       Zr287   2.409       .  S
O256        C257   1.284       .  A
C257       C2961   1.454       .  S
O258       Zr261   2.422       .  S
O258        C260   1.286       .  A
O259       Zr288   2.405       .  S
O259        C260   1.281       .  A
C260       C2811   1.456       .  S
Zr261       O262   2.434       .  S
Zr261       O263   2.436       .  S
Zr261       O267   2.356       .  S
Zr261       O268   2.344       .  S
Zr261       O291   2.354       .  S
Zr261       O293   2.342       .  S
O262        H305   0.990       .  S
O263        H304   0.990       .  S
O263        H308   0.990       .  S
Zr264       O265   2.435       .  S
Zr264       O266   2.434       .  S
Zr264       O268   2.357       .  S
Zr264       O267   2.357       .  S
Zr264       O292   2.352       .  S
Zr264       O294   2.343       .  S
O265        H306   0.990       .  S
O265        H309   0.990       .  S
O266        H299   0.990       .  S
O267       Zr287   2.384       .  S
O268       Zr288   2.390       .  S
O268        H295   0.965       .  S
O269       Zr281   2.516       .  S
O269        C271   1.299       .  A
O270       Zr288   2.407       .  S
O270        C271   1.281       .  A
C271       C2661   1.508       .  S
O272       Zr284   2.518       .  S
O272        C274   1.300       .  A
O273       Zr287   2.408       .  S
O273        C274   1.282       .  A
C274       C2688   1.504       .  S
O275       Zr284   2.510       .  S
O275        C277   1.300       .  A
O276       Zr288   2.428       .  S
O276        C277   1.285       .  A
C277       C2668   1.506       .  S
O278       Zr281   2.504       .  S
O278        C280   1.299       .  A
O279       Zr287   2.429       .  S
O279        C280   1.287       .  A
C280       C2678   1.502       .  S
Zr281       O282   2.437       .  S
Zr281       O283   2.435       .  S
Zr281       O289   2.417       .  S
Zr281       O290   2.410       .  S
Zr281       O293   2.388       .  S
Zr281       O291   2.357       .  S
O282        H302   0.989       .  S
O282        H307   0.990       .  S
O283        H303   0.990       .  S
Zr284       O285   2.434       .  S
Zr284       O286   2.437       .  S
Zr284       O290   2.407       .  S
Zr284       O289   2.411       .  S
Zr284       O294   2.364       .  S
Zr284       O292   2.368       .  S
O285        H301   0.990       .  S
O286        H300   0.990       .  S
O286        H310   0.990       .  S
Zr287       O290   2.385       .  S
Zr287       O292   2.381       .  S
Zr287       O293   2.384       .  S
Zr288       O289   2.397       .  S
Zr288       O291   2.375       .  S
Zr288       O294   2.365       .  S
O289        H297   0.966       .  S
O292        H296   0.962       .  S
O293        H298   0.964       .  S
O311       Zr323   2.404       .  S
O311        C313   1.274       .  A
O312       Zr349   2.418       .  S
O312        C313   1.283       .  A
C313       C2951   1.468       .  S
O314       Zr326   2.404       .  S
O314        C316   1.281       .  A
O315       Zr350   2.420       .  S
O315        C316   1.283       .  A
C316       C2801   1.449       .  S
O317       Zr326   2.423       .  S
O317        C319   1.285       .  A
O318       Zr349   2.394       .  S
O318        C319   1.279       .  A
C319       C2698   1.453       .  S
O320       Zr323   2.431       .  S
O320        C322   1.286       .  A
O321       Zr350   2.383       .  S
O321        C322   1.276       .  A
C322       C2868   1.442       .  S
Zr323       O324   2.433       .  S
Zr323       O325   2.436       .  S
Zr323       O329   2.364       .  S
Zr323       O330   2.344       .  S
Zr323       O353   2.332       .  S
Zr323       O355   2.356       .  S
O324        H367   0.990       .  S
O325        H366   0.990       .  S
O325        H370   0.990       .  S
Zr326       O327   2.438       .  S
Zr326       O328   2.435       .  S
Zr326       O330   2.357       .  S
Zr326       O329   2.349       .  S
Zr326       O354   2.331       .  S
Zr326       O356   2.351       .  S
O327        H368   0.990       .  S
O327        H371   0.990       .  S
O328        H361   0.990       .  S
O329       Zr349   2.387       .  S
O330       Zr350   2.397       .  S
O330        H357   0.963       .  S
O331       Zr343   2.489       .  S
O331        C333   1.296       .  A
O332       Zr350   2.437       .  S
O332        C333   1.287       .  A
C333       C2631   1.496       .  S
O334       Zr346   2.491       .  S
O334        C336   1.298       .  A
O335       Zr349   2.427       .  S
O335        C336   1.289       .  A
C336       C2618   1.499       .  S
O337       Zr346   2.512       .  S
O337        C339   1.299       .  A
O338       Zr350   2.406       .  S
O338        C339   1.280       .  A
C339       C2638   1.504       .  S
O340       Zr343   2.492       .  S
O340        C342   1.297       .  A
O341       Zr349   2.418       .  S
O341        C342   1.285       .  A
C342       C2648   1.493       .  S
Zr343       O344   2.436       .  S
Zr343       O345   2.436       .  S
Zr343       O351   2.406       .  S
Zr343       O352   2.396       .  S
Zr343       O355   2.379       .  S
Zr343       O353   2.360       .  S
O344        H364   0.990       .  S
O344        H369   0.990       .  S
O345        H365   0.990       .  S
Zr346       O347   2.434       .  S
Zr346       O348   2.437       .  S
Zr346       O352   2.407       .  S
Zr346       O351   2.406       .  S
Zr346       O356   2.364       .  S
Zr346       O354   2.390       .  S
O347        H363   0.990       .  S
O348        H362   0.990       .  S
O348        H372   0.990       .  S
Zr349       O352   2.388       .  S
Zr349       O354   2.387       .  S
Zr349       O355   2.393       .  S
Zr350       O351   2.397       .  S
Zr350       O353   2.365       .  S
Zr350       O356   2.381       .  S
O351        H359   0.966       .  S
O354        H358   0.964       .  S
O355        H360   0.964       .  S
O373       Zr385   2.427       .  S
O373        C375   1.284   1_554  A
O374       Zr411   2.409       .  S
O374        C375   1.284       .  A
C375       C2608   1.456       .  S
O376       Zr388   2.405       .  S
O376        C378   1.274       .  A
O377       Zr412   2.437       .  S
O377        C378   1.284   1_554  A
C378       C2598   1.472       .  S
O379       Zr388   2.410       .  S
O379        C381   1.280       .  A
O380       Zr411   2.400       .  S
O380        C381   1.281       .  A
C381       C2578   1.435       .  S
O382       Zr385   2.410       .  S
O382        C384   1.272       .  A
O383       Zr412   2.407       .  S
O383        C384   1.279       .  A
C384       C2588   1.447       .  S
Zr385       O386   2.435       .  S
Zr385       O387   2.438       .  S
Zr385       O391   2.364   1_554  S
Zr385       O392   2.366       .  S
Zr385       O415   2.360       .  S
Zr385       O417   2.355       .  S
O386        H429   0.990       .  S
O387        H428   0.990       .  S
O387        H432   0.990       .  S
Zr388       O389   2.436       .  S
Zr388       O390   2.434       .  S
Zr388       O392   2.357   1_556  S
Zr388       O391   2.366       .  S
Zr388       O416   2.348       .  S
Zr388       O418   2.358       .  S
O389        H430   0.990       .  S
O389        H433   0.990       .  S
O390        H423   0.990       .  S
O391       Zr411   2.391       .  S
O392       Zr412   2.415       .  S
O392        H419   0.965       .  S
O393       Zr405   2.515       .  S
O393        C395   1.301       .  A
O394       Zr412   2.413       .  S
O394        C395   1.284       .  A
C395       C2558   1.507       .  S
O396       Zr408   2.507       .  S
O396        C398   1.300       .  A
O397       Zr411   2.424       .  S
O397        C398   1.286       .  A
C398       C2568   1.501       .  S
O399       Zr408   2.526       .  S
O399        C401   1.302       .  A
O400       Zr412   2.402       .  S
O400        C401   1.280   1_554  A
C401       C2538   1.510       .  S
O402       Zr405   2.519       .  S
O402        C404   1.302   1_554  A
O403       Zr411   2.418       .  S
O403        C404   1.285       .  A
C404       C2548   1.506       .  S
Zr405       O406   2.435       .  S
Zr405       O407   2.436       .  S
Zr405       O413   2.408       .  S
Zr405       O414   2.403   1_554  S
Zr405       O417   2.379       .  S
Zr405       O415   2.354       .  S
O406        H426   0.990       .  S
O406        H431   0.990       .  S
O407        H427   0.990       .  S
Zr408       O409   2.434       .  S
Zr408       O410   2.437       .  S
Zr408       O414   2.408       .  S
Zr408       O413   2.404   1_556  S
Zr408       O418   2.353       .  S
Zr408       O416   2.384       .  S
O409        H425   0.990       .  S
O410        H424   0.990       .  S
O410        H434   0.990       .  S
Zr411       O414   2.388       .  S
Zr411       O416   2.383       .  S
Zr411       O417   2.384   1_556  S
Zr412       O413   2.404       .  S
Zr412       O415   2.377       .  S
Zr412       O418   2.374   1_554  S
O413        H421   0.966       .  S
O416        H420   0.961       .  S
O417        H422   0.960       .  S
O435       Zr447   2.445       .  S
O435        C437   1.288   1_455  A
O436       Zr473   2.376       .  S
O436        C437   1.276       .  A
C437       C2518   1.449       .  S
O438       Zr450   2.414   1_455  S
O438        C440   1.284       .  A
O439       Zr474   2.417       .  S
O439        C440   1.283       .  A
C440       C2528   1.459       .  S
O441       Zr450   2.365       .  S
O441        C443   1.276       .  A
O442       Zr473   2.445       .  S
O442        C443   1.289       .  A
C443       C2581   1.462       .  S
O444       Zr447   2.398       .  S
O444        C446   1.280       .  A
O445       Zr474   2.428       .  S
O445        C446   1.287       .  A
C446       C2508   1.465       .  S
Zr447       O448   2.435       .  S
Zr447       O449   2.438       .  S
Zr447       O453   2.344   1_455  S
Zr447       O454   2.360       .  S
Zr447       O477   2.363       .  S
Zr447       O479   2.337       .  S
O448        H491   0.990       .  S
O449        H490   0.990       .  S
O449        H494   0.990       .  S
Zr450       O451   2.435   1_655  S
Zr450       O452   2.434       .  S
Zr450       O454   2.347   1_655  S
Zr450       O453   2.364       .  S
Zr450       O478   2.363       .  S
Zr450       O480   2.328   1_655  S
O451        H492   0.990       .  S
O451        H495   0.990   1_455  S
O452        H485   0.990       .  S
O453       Zr473   2.389       .  S
O454       Zr474   2.390       .  S
O454        H481   0.966       .  S
O455       Zr467   2.511       .  S
O455        C457   1.298       .  A
O456       Zr474   2.409       .  S
O456        C457   1.281       .  A
C457       C2468   1.510       .  S
O458       Zr470   2.521       .  S
O458        C460   1.300       .  A
O459       Zr473   2.397       .  S
O459        C460   1.279       .  A
C460       C2498   1.498       .  S
O461       Zr470   2.492   1_455  S
O461        C463   1.298       .  A
O462       Zr474   2.436       .  S
O462        C463   1.289       .  A
C463       C2488   1.501       .  S
O464       Zr467   2.484       .  S
O464        C466   1.296   1_455  A
O465       Zr473   2.448       .  S
O465        C466   1.290       .  A
C466       C2481   1.497       .  S
Zr467       O468   2.438       .  S
Zr467       O469   2.435       .  S
Zr467       O475   2.403       .  S
Zr467       O476   2.407   1_455  S
Zr467       O479   2.385       .  S
Zr467       O477   2.352       .  S
O468        H488   0.989       .  S
O468        H493   0.989       .  S
O469        H489   0.990       .  S
Zr470       O471   2.434       .  S
Zr470       O472   2.438       .  S
Zr470       O476   2.396       .  S
Zr470       O475   2.412   1_655  S
Zr470       O480   2.363   1_655  S
Zr470       O478   2.369       .  S
O471        H487   0.990       .  S
O472        H486   0.990       .  S
O472        H496   0.990       .  S
Zr473       O476   2.394       .  S
Zr473       O478   2.385       .  S
Zr473       O479   2.387   1_655  S
Zr474       O475   2.408       .  S
Zr474       O477   2.370       .  S
Zr474       O480   2.362       .  S
O475        H483   0.965       .  S
O478        H482   0.963       .  S
O479        H484   0.961       .  S
O497       Zr509   2.380   1_556  S
O497        C499   1.275       .  A
O498       Zr535   2.443       .  S
O498        C499   1.287       .  A
C499       C2448   1.476       .  S
O500       Zr512   2.405       .  S
O500        C502   1.279       .  A
O501       Zr536   2.439       .  S
O501        C502   1.290   1_554  A
C502       C2461   1.473       .  S
O503       Zr512   2.421       .  S
O503        C505   1.285       .  A
O504       Zr535   2.418       .  S
O504        C505   1.285       .  A
C505       C2511   1.462       .  S
O506       Zr509   2.391       .  S
O506        C508   1.278       .  A
O507       Zr536   2.454       .  S
O507        C508   1.292       .  A
C508       C2438   1.474       .  S
Zr509       O510   2.434       .  S
Zr509       O511   2.440       .  S
Zr509       O515   2.362   1_554  S
Zr509       O516   2.348       .  S
Zr509       O539   2.346       .  S
Zr509       O541   2.359   1_554  S
O510        H553   0.990       .  S
O511        H552   0.990       .  S
O511        H556   0.990       .  S
Zr512       O513   2.434       .  S
Zr512       O514   2.436       .  S
Zr512       O516   2.362   1_556  S
Zr512       O515   2.357       .  S
Zr512       O540   2.353       .  S
Zr512       O542   2.360       .  S
O513        H554   0.990       .  S
O513        H557   0.990       .  S
O514        H547   0.990       .  S
O515       Zr535   2.396       .  S
O516       Zr536   2.393       .  S
O516        H543   0.966       .  S
O517       Zr529   2.487       .  S
O517        C519   1.296       .  A
O518       Zr536   2.409       .  S
O518        C519   1.283       .  A
C519       C2408   1.497       .  S
O520       Zr532   2.500       .  S
O520        C522   1.298       .  A
O521       Zr535   2.422       .  S
O521        C522   1.286       .  A
C522       C2398   1.498       .  S
O523       Zr532   2.507       .  S
O523        C525   1.299       .  A
O524       Zr536   2.410       .  S
O524        C525   1.282   1_554  A
C525       C2418   1.505       .  S
O526       Zr529   2.490   1_556  S
O526        C528   1.296       .  A
O527       Zr535   2.422       .  S
O527        C528   1.286       .  A
C528       C2428   1.492       .  S
Zr529       O530   2.434       .  S
Zr529       O531   2.436       .  S
Zr529       O537   2.396       .  S
Zr529       O538   2.392   1_554  S
Zr529       O541   2.379   1_554  S
Zr529       O539   2.359       .  S
O530        H550   0.990       .  S
O530        H555   0.990       .  S
O531        H551   0.990       .  S
Zr532       O533   2.434       .  S
Zr532       O534   2.437       .  S
Zr532       O538   2.403       .  S
Zr532       O537   2.390   1_556  S
Zr532       O542   2.360       .  S
Zr532       O540   2.369       .  S
O533        H549   0.990       .  S
O534        H548   0.990       .  S
O534        H558   0.990       .  S
Zr535       O538   2.399       .  S
Zr535       O540   2.389       .  S
Zr535       O541   2.386       .  S
Zr536       O537   2.409       .  S
Zr536       O539   2.359       .  S
Zr536       O542   2.370   1_554  S
O537        H545   0.966       .  S
O540        H544   0.958       .  S
O541        H546   0.962   1_556  S
O559       Zr571   2.420       .  S
O559        C561   1.284   1_455  A
O560       Zr597   2.390       .  S
O560        C561   1.278       .  A
C561       C2388   1.446       .  S
O562       Zr574   2.414   1_455  S
O562        C564   1.284       .  A
O563       Zr598   2.420       .  S
O563        C564   1.285       .  A
C564       C2381   1.461       .  S
O565       Zr574   2.386       .  S
O565        C567   1.279       .  A
O566       Zr597   2.427       .  S
O566        C567   1.287       .  A
C567       C2591   1.467       .  S
O568       Zr571   2.386       .  S
O568        C570   1.279       .  A
O569       Zr598   2.457       .  S
O569        C570   1.293       .  A
C570       C2441   1.475       .  S
Zr571       O572   2.435       .  S
Zr571       O573   2.438       .  S
Zr571       O577   2.342   1_455  S
Zr571       O578   2.358       .  S
Zr571       O601   2.356       .  S
Zr571       O603   2.339       .  S
O572        H615   0.990       .  S
O573        H614   0.990       .  S
O573        H618   0.990       .  S
Zr574       O575   2.436       .  S
Zr574       O576   2.435       .  S
Zr574       O578   2.354   1_655  S
Zr574       O577   2.350       .  S
Zr574       O602   2.362       .  S
Zr574       O604   2.333   1_655  S
O575        H616   0.990   1_655  S
O575        H619   0.990       .  S
O576        H609   0.990       .  S
O577       Zr597   2.387       .  S
O578       Zr598   2.387       .  S
O578        H605   0.966       .  S
O579       Zr591   2.492       .  S
O579        C581   1.295       .  A
O580       Zr598   2.406       .  S
O580        C581   1.282       .  A
C581       C2348   1.497       .  S
O582       Zr594   2.510       .  S
O582        C584   1.299       .  A
O583       Zr597   2.414       .  S
O583        C584   1.283       .  A
C584       C2338   1.497       .  S
O585       Zr594   2.482   1_455  S
O585        C587   1.296       .  A
O586       Zr598   2.438       .  S
O586        C587   1.289       .  A
C587       C2371   1.499       .  S
O588       Zr591   2.466       .  S
O588        C590   1.293   1_455  A
O589       Zr597   2.448       .  S
O589        C590   1.290       .  A
C590       C2358   1.489       .  S
Zr591       O592   2.438       .  S
Zr591       O593   2.435       .  S
Zr591       O599   2.398       .  S
Zr591       O600   2.401   1_455  S
Zr591       O603   2.395       .  S
Zr591       O601   2.356       .  S
O592        H612   0.989       .  S
O592        H617   0.989       .  S
O593        H613   0.990       .  S
Zr594       O595   2.433       .  S
Zr594       O596   2.438       .  S
Zr594       O600   2.393       .  S
Zr594       O599   2.406   1_655  S
Zr594       O604   2.364   1_655  S
Zr594       O602   2.368       .  S
O595        H611   0.990       .  S
O596        H610   0.990       .  S
O596        H620   0.990       .  S
Zr597       O600   2.393       .  S
Zr597       O602   2.386       .  S
Zr597       O603   2.384   1_655  S
Zr598       O599   2.413       .  S
Zr598       O601   2.368       .  S
Zr598       O604   2.367       .  S
O599        H607   0.966       .  S
O602        H606   0.963       .  S
O603        H608   0.963       .  S
O621       Zr633   2.424       .  S
O621        C623   1.285   1_554  A
O622       Zr659   2.426       .  S
O622        C623   1.287       .  A
C623       C2601   1.469       .  S
O624       Zr636   2.413       .  S
O624        C626   1.271       .  A
O625       Zr660   2.424       .  S
O625        C626   1.283   1_554  A
C626       C2451   1.454       .  S
O627       Zr636   2.434       .  S
O627        C629   1.286   1_455  A
O628       Zr659   2.386       .  S
O628        C629   1.278       .  A
C629       C2521   1.450       .  S
O630       Zr633   2.432   1_455  S
O630        C632   1.288       .  A
O631       Zr660   2.405       .  S
O631        C632   1.282       .  A
C632       C2378   1.458       .  S
Zr633       O634   2.434       .  S
Zr633       O635   2.437       .  S
Zr633       O639   2.368   1_554  S
Zr633       O640   2.355   1_655  S
Zr633       O663   2.352       .  S
Zr633       O665   2.360   1_554  S
O634        H677   0.990       .  S
O635        H676   0.990       .  S
O635        H680   0.990       .  S
Zr636       O637   2.443       .  S
Zr636       O638   2.435       .  S
Zr636       O640   2.369   1_556  S
Zr636       O639   2.365   1_455  S
Zr636       O664   2.341       .  S
Zr636       O666   2.367       .  S
O637        H678   0.988       .  S
O637        H681   0.990       .  S
O638        H671   0.990       .  S
O639       Zr659   2.393       .  S
O640       Zr660   2.403       .  S
O640        H667   0.964       .  S
O641       Zr653   2.495       .  S
O641        C643   1.298   1_655  A
O642       Zr660   2.426       .  S
O642        C643   1.286       .  A
C643       C2331   1.503       .  S
O644       Zr656   2.486       .  S
O644        C646   1.297   1_455  A
O645       Zr659   2.442       .  S
O645        C646   1.290       .  A
C646       C2311   1.502       .  S
O647       Zr656   2.508       .  S
O647        C649   1.298       .  A
O648       Zr660   2.402       .  S
O648        C649   1.279   1_554  A
C649       C2321   1.503       .  S
O650       Zr653   2.511   1_556  S
O650        C652   1.300       .  A
O651       Zr659   2.412       .  S
O651        C652   1.284       .  A
C652       C2298   1.508       .  S
Zr653       O654   2.435       .  S
Zr653       O655   2.436       .  S
Zr653       O661   2.402   1_654  S
Zr653       O662   2.400   1_554  S
Zr653       O665   2.364   1_554  S
Zr653       O663   2.366       .  S
O654        H674   0.990       .  S
O654        H679   0.990   1_554  S
O655        H675   0.990       .  S
Zr656       O657   2.434       .  S
Zr656       O658   2.437       .  S
Zr656       O662   2.405   1_455  S
Zr656       O661   2.401       .  S
Zr656       O666   2.353       .  S
Zr656       O664   2.388       .  S
O657        H673   0.990       .  S
O658        H672   0.990       .  S
O658        H682   0.990       .  S
Zr659       O662   2.390       .  S
Zr659       O664   2.384   1_655  S
Zr659       O665   2.382       .  S
Zr660       O661   2.401   1_554  S
Zr660       O663   2.367   1_455  S
Zr660       O666   2.374   1_554  S
O661        H669   0.966   1_556  S
O664        H668   0.960       .  S
O665        H670   0.961   1_556  S
O683       Zr695   2.408   1_655  S
O683        C685   1.283       .  A
O684       Zr721   2.424       .  S
O684        C685   1.287   1_554  A
C685       C2611   1.466       .  S
O686       Zr698   2.397       .  S
O686        C688   1.280   1_554  A
O687       Zr722   2.440       .  S
O687        C688   1.289       .  A
C688       C2458   1.467       .  S
O689       Zr698   2.436       .  S
O689        C691   1.288   1_455  A
O690       Zr721   2.377       .  S
O690        C691   1.276       .  A
C691       C2391   1.447       .  S
O692       Zr695   2.428       .  S
O692        C694   1.287       .  A
O693       Zr722   2.403       .  S
O693        C694   1.281       .  A
C694       C2531   1.458       .  S
Zr695       O696   2.434       .  S
Zr695       O697   2.435   1_455  S
Zr695       O701   2.357   1_556  S
Zr695       O702   2.356       .  S
Zr695       O725   2.333       .  S
Zr695       O727   2.363   1_455  S
O696        H739   0.990       .  S
O697        H738   0.990       .  S
O697        H742   0.990       .  S
Zr698       O699   2.436       .  S
Zr698       O700   2.435       .  S
Zr698       O702   2.360   1_554  S
Zr698       O701   2.346       .  S
Zr698       O726   2.339       .  S
Zr698       O728   2.362       .  S
O699        H740   0.990   1_554  S
O699        H743   0.990       .  S
O700        H733   0.990       .  S
O701       Zr721   2.384   1_455  S
O702       Zr722   2.392       .  S
O702        H729   0.966       .  S
O703       Zr715   2.490   1_455  S
O703        C705   1.298       .  A
O704       Zr722   2.449       .  S
O704        C705   1.291       .  A
C705       C2278   1.503       .  S
O706       Zr718   2.491       .  S
O706        C708   1.298       .  A
O707       Zr721   2.433       .  S
O707        C708   1.288   1_655  A
C708       C2288   1.500       .  S
O709       Zr718   2.515       .  S
O709        C711   1.299   1_554  A
O710       Zr722   2.401       .  S
O710        C711   1.278       .  A
C711       C2271   1.508       .  S
O712       Zr715   2.523       .  S
O712        C714   1.301   1_556  A
O713       Zr721   2.399       .  S
O713        C714   1.280       .  A
C714       C2258   1.505   1_554  S
Zr715       O716   2.436   1_655  S
Zr715       O717   2.436       .  S
Zr715       O723   2.411   1_655  S
Zr715       O724   2.394   1_656  S
Zr715       O727   2.365       .  S
Zr715       O725   2.362   1_655  S
O716        H736   0.990       .  S
O716        H741   0.990   1_455  S
O717        H737   0.990       .  S
Zr718       O719   2.434       .  S
Zr718       O720   2.438       .  S
Zr718       O724   2.407       .  S
Zr718       O723   2.407   1_554  S
Zr718       O728   2.356       .  S
Zr718       O726   2.393       .  S
O719        H735   0.990       .  S
O720        H734   0.990       .  S
O720        H744   0.990       .  S
Zr721       O724   2.383   1_655  S
Zr721       O726   2.381   1_655  S
Zr721       O727   2.381   1_554  S
Zr722       O723   2.407       .  S
Zr722       O725   2.359       .  S
Zr722       O728   2.373   1_556  S
O723        H731   0.966       .  S
O726        H730   0.964       .  S
O727        H732   0.962       .  S
O745       Zr757   2.395   1_556  S
O745        C747   1.279       .  A
O746       Zr783   2.409       .  S
O746        C747   1.281       .  A
C747       C2251   1.443       .  S
O748       Zr760   2.517       .  S
O748        C750   1.301       .  A
O749       Zr784   2.419       .  S
O749        C750   1.285       .  A
C750       C2198   1.511       .  S
O751       Zr760   2.511       .  S
O751        C753   1.301   1_554  A
O752       Zr783   2.427       .  S
O752        C753   1.286       .  A
C753       C2188   1.510       .  S
O754       Zr757   2.413       .  S
O754        C756   1.279       .  A
O755       Zr784   2.381       .  S
O755        C756   1.275       .  A
C756       C2228   1.446       .  S
Zr757       O758   2.437       .  S
Zr757       O759   2.437       .  S
Zr757       O763   2.341   1_554  S
Zr757       O764   2.340       .  S
Zr757       O787   2.346       .  S
Zr757       O789   2.362   1_554  S
O758        H801   0.990       .  S
O759        H800   0.990       .  S
O759        H804   0.990       .  S
Zr760       O761   2.438       .  S
Zr760       O762   2.435       .  S
Zr760       O764   2.375       .  S
Zr760       O763   2.358   1_554  S
Zr760       O788   2.413   1_554  S
Zr760       O790   2.407       .  S
O761        H802   0.990       .  S
O761        H805   0.990       .  S
O762        H795   0.990   1_554  S
O763       Zr783   2.367       .  S
O764       Zr784   2.395       .  S
O764        H791   0.963       .  S
O765       Zr777   2.410       .  S
O765        C767   1.283   1_556  A
O766       Zr784   2.413       .  S
O766        C767   1.283       .  A
C767       C2241   1.455       .  S
O768       Zr780   2.490       .  S
O768        C770   1.296       .  A
O769       Zr783   2.421       .  S
O769        C770   1.286       .  A
C770       C2208   1.499       .  S
O771       Zr780   2.504       .  S
O771        C773   1.299       .  A
O772       Zr784   2.415       .  S
O772        C773   1.285   1_554  A
C773       C2178   1.497       .  S
O774       Zr777   2.401       .  S
O774        C776   1.281       .  A
O775       Zr783   2.424       .  S
O775        C776   1.284       .  A
C776       C2218   1.457       .  S
Zr777       O778   2.437       .  S
Zr777       O779   2.434       .  S
Zr777       O785   2.351       .  S
Zr777       O786   2.346       .  S
Zr777       O789   2.360       .  S
Zr777       O787   2.343   1_556  S
O778        H798   0.990       .  S
O778        H803   0.990       .  S
O779        H799   0.990       .  S
Zr780       O781   2.436       .  S
Zr780       O782   2.435       .  S
Zr780       O786   2.364       .  S
Zr780       O785   2.384       .  S
Zr780       O790   2.397   1_556  S
Zr780       O788   2.412       .  S
O781        H797   0.990       .  S
O782        H796   0.990       .  S
O782        H806   0.990       .  S
Zr783       O786   2.370       .  S
Zr783       O788   2.405       .  S
Zr783       O789   2.391       .  S
Zr784       O785   2.381   1_554  S
Zr784       O787   2.384       .  S
Zr784       O790   2.384       .  S
O785        H793   0.964       .  S
O788        H792   0.966       .  S
O789        H794   0.966       .  S
O807       Zr819   2.382       .  S
O807        C809   1.278       .  A
O808       Zr845   2.431   1_545  S
O808        C809   1.286       .  A
C809       C2171   1.465       .  S
O810       Zr822   2.425       .  S
O810        C812   1.286       .  A
O811       Zr846   2.393       .  S
O811        C812   1.279       .  A
C812       C2158   1.438       .  S
O813       Zr822   2.458   1_565  S
O813        C815   1.292       .  A
O814       Zr845   2.381       .  S
O814        C815   1.278       .  A
C815       C2221   1.459       .  S
O816       Zr819   2.426       .  S
O816        C818   1.287       .  A
O817       Zr846   2.391       .  S
O817        C818   1.278       .  A
C818       C2148   1.456       .  S
Zr819       O820   2.434       .  S
Zr819       O821   2.437       .  S
Zr819       O825   2.366       .  S
Zr819       O826   2.331       .  S
Zr819       O849   2.332       .  S
Zr819       O851   2.354       .  S
O820        H863   0.990       .  S
O821        H862   0.990       .  S
O821        H866   0.990       .  S
Zr822       O823   2.434       .  S
Zr822       O824   2.434   1_545  S
Zr822       O826   2.365       .  S
Zr822       O825   2.354       .  S
Zr822       O850   2.342   1_545  S
Zr822       O852   2.367       .  S
O823        H864   0.990       .  S
O823        H867   0.990   1_545  S
O824        H857   0.990       .  S
O825       Zr845   2.389   1_545  S
O826       Zr846   2.391       .  S
O826        H853   0.966       .  S
O827       Zr839   2.501       .  S
O827        C829   1.298       .  A
O828       Zr846   2.433       .  S
O828        C829   1.287       .  A
C829       C2131   1.507       .  S
O830       Zr842   2.489       .  S
O830        C832   1.297       .  A
O831       Zr845   2.441       .  S
O831        C832   1.290       .  A
C832       C2138   1.506       .  S
O833       Zr842   2.508   1_545  S
O833        C835   1.298       .  A
O834       Zr846   2.415       .  S
O834        C835   1.283       .  A
C835       C2118   1.507       .  S
O836       Zr839   2.504       .  S
O836        C838   1.298       .  A
O837       Zr845   2.406   1_545  S
O837        C838   1.281       .  A
C838       C2108   1.493       .  S
Zr839       O840   2.436       .  S
Zr839       O841   2.436       .  S
Zr839       O847   2.413       .  S
Zr839       O848   2.401       .  S
Zr839       O851   2.379       .  S
Zr839       O849   2.356       .  S
O840        H860   0.990       .  S
O840        H865   0.990       .  S
O841        H861   0.990       .  S
Zr842       O843   2.435   1_565  S
Zr842       O844   2.437       .  S
Zr842       O848   2.409   1_565  S
Zr842       O847   2.402   1_565  S
Zr842       O852   2.361   1_565  S
Zr842       O850   2.377       .  S
O843        H859   0.990   1_545  S
O844        H858   0.990       .  S
O844        H868   0.990       .  S
Zr845       O848   2.388   1_565  S
Zr845       O850   2.381       .  S
Zr845       O851   2.383   1_565  S
Zr846       O847   2.393       .  S
Zr846       O849   2.358       .  S
Zr846       O852   2.374       .  S
O847        H855   0.966       .  S
O850        H854   0.961       .  S
O851        H856   0.963       .  S
O869       Zr881   2.490       .  S
O869        C871   1.296       .  A
O870       Zr907   2.423       .  S
O870        C871   1.285       .  A
C871       C2058   1.502       .  S
O872       Zr884   2.398       .  S
O872        C874   1.281       .  A
O873       Zr908   2.437       .  S
O873        C874   1.288   1_554  A
C874       C2098   1.472       .  S
O875       Zr884   2.410       .  S
O875        C877   1.283       .  A
O876       Zr907   2.404       .  S
O876        C877   1.281       .  A
C877       C2151   1.454       .  S
O878       Zr881   2.489       .  S
O878        C880   1.296   1_556  A
O879       Zr908   2.439       .  S
O879        C880   1.289       .  A
C880       C2038   1.494       .  S
Zr881       O882   2.436       .  S
Zr881       O883   2.435       .  S
Zr881       O887   2.359       .  S
Zr881       O888   2.378       .  S
Zr881       O911   2.396   1_556  S
Zr881       O913   2.403       .  S
O882        H925   0.990       .  S
O883        H924   0.990       .  S
O883        H928   0.990       .  S
Zr884       O885   2.437       .  S
Zr884       O886   2.435       .  S
Zr884       O888   2.355       .  S
Zr884       O887   2.348       .  S
Zr884       O912   2.346       .  S
Zr884       O914   2.364   1_556  S
O885        H926   0.990       .  S
O885        H929   0.990       .  S
O886        H919   0.990       .  S
O887       Zr907   2.364       .  S
O888       Zr908   2.383   1_556  S
O888        H915   0.963       .  S
O889       Zr901   2.500       .  S
O889        C891   1.298       .  A
O890       Zr908   2.417       .  S
O890        C891   1.285       .  A
C891       C2068   1.492       .  S
O892       Zr904   2.415   1_556  S
O892        C894   1.285       .  A
O893       Zr907   2.397       .  S
O893        C894   1.280       .  A
C894       C2088   1.453       .  S
O895       Zr904   2.420       .  S
O895        C897   1.285       .  A
O896       Zr908   2.432       .  S
O896        C897   1.288       .  A
C897       C2078   1.472       .  S
O898       Zr901   2.515       .  S
O898        C900   1.300   1_554  A
O899       Zr907   2.420       .  S
O899        C900   1.284       .  A
C900       C2048   1.511       .  S
Zr901       O902   2.438       .  S
Zr901       O903   2.435       .  S
Zr901       O909   2.372       .  S
Zr901       O910   2.358   1_554  S
Zr901       O913   2.400   1_554  S
Zr901       O911   2.407       .  S
O902        H922   0.990       .  S
O902        H927   0.990       .  S
O903        H923   0.990       .  S
Zr904       O905   2.434       .  S
Zr904       O906   2.434   1_554  S
Zr904       O910   2.354   1_554  S
Zr904       O909   2.352       .  S
Zr904       O914   2.360       .  S
Zr904       O912   2.354   1_554  S
O905        H921   0.990       .  S
O906        H920   0.990   1_556  S
O906        H930   0.990   1_556  S
Zr907       O910   2.369       .  S
Zr907       O912   2.391       .  S
Zr907       O913   2.397       .  S
Zr908       O909   2.392       .  S
Zr908       O911   2.399       .  S
Zr908       O914   2.392       .  S
O909        H917   0.960       .  S
O912        H916   0.966       .  S
O913        H918   0.966       .  S
O931       Zr943   2.426       .  S
O931        C933   1.285       .  A
O932       Zr969   2.380       .  S
O932        C933   1.277       .  A
C933       C2231   1.435       .  S
O934       Zr946   2.402       .  S
O934        C936   1.282       .  A
O935       Zr970   2.434       .  S
O935        C936   1.289       .  A
C936       C2081   1.469       .  S
O937       Zr946   2.422       .  S
O937        C939   1.286   1_545  A
O938       Zr969   2.401       .  S
O938        C939   1.280       .  A
C939       C2028   1.451       .  S
O940       Zr943   2.407       .  S
O940        C942   1.273   1_565  A
O941       Zr970   2.406       .  S
O941        C942   1.281       .  A
C942       C2018   1.447       .  S
Zr943       O944   2.436       .  S
Zr943       O945   2.438       .  S
Zr943       O949   2.346       .  S
Zr943       O950   2.365   1_565  S
Zr943       O973   2.354       .  S
Zr943       O975   2.351       .  S
O944        H987   0.990       .  S
O945        H986   0.990       .  S
O945        H990   0.990       .  S
Zr946       O947   2.437       .  S
Zr946       O948   2.435       .  S
Zr946       O950   2.357       .  S
Zr946       O949   2.350   1_545  S
Zr946       O974   2.343       .  S
Zr946       O976   2.357       .  S
O947        H988   0.990       .  S
O947        H991   0.990       .  S
O948        H981   0.990       .  S
O949       Zr969   2.384       .  S
O950       Zr970   2.400       .  S
O950        H977   0.966       .  S
O951       Zr963   2.510       .  S
O951        C953   1.300   1_565  A
O952       Zr970   2.424       .  S
O952        C953   1.287       .  A
C953       C2001   1.509       .  S
O954       Zr966   2.494       .  S
O954        C956   1.298   1_545  A
O955       Zr969   2.420       .  S
O955        C956   1.285       .  A
C956       C2011   1.497       .  S
O957       Zr966   2.505       .  S
O957        C959   1.298       .  A
O958       Zr970   2.409       .  S
O958        C959   1.283       .  A
C959       C1981   1.502       .  S
O960       Zr963   2.519       .  S
O960        C962   1.300       .  A
O961       Zr969   2.411       .  S
O961        C962   1.280       .  A
C962       C1988   1.511       .  S
Zr963       O964   2.435       .  S
Zr963       O965   2.436       .  S
Zr963       O971   2.412   1_565  S
Zr963       O972   2.406       .  S
Zr963       O975   2.378       .  S
Zr963       O973   2.355       .  S
O964        H984   0.990       .  S
O964        H989   0.990       .  S
O965        H985   0.990       .  S
Zr966       O967   2.434       .  S
Zr966       O968   2.437       .  S
Zr966       O972   2.403   1_545  S
Zr966       O971   2.406       .  S
Zr966       O976   2.355       .  S
Zr966       O974   2.389       .  S
O967        H983   0.990       .  S
O968        H982   0.990       .  S
O968        H992   0.990       .  S
Zr969       O972   2.381       .  S
Zr969       O974   2.378   1_565  S
Zr969       O975   2.391       .  S
Zr970       O971   2.401       .  S
Zr970       O973   2.371   1_545  S
Zr970       O976   2.367       .  S
O971        H979   0.966       .  S
O974        H978   0.964       .  S
O975        H980   0.960       .  S
O993      Zr1005   2.442       .  S
O993        C995   1.289   1_556  A
O994      Zr1031   2.383       .  S
O994        C995   1.278       .  A
C995       C2238   1.454       .  S
O996      Zr1008   2.407   1_556  S
O996        C998   1.284       .  A
O997      Zr1032   2.402       .  S
O997        C998   1.280       .  A
C998       C2091   1.456       .  S
O999      Zr1008   2.382       .  S
O999       C1001   1.278       .  A
O1000     Zr1031   2.425       .  S
O1000      C1001   1.285   1_565  A
C1001      C2021   1.462       .  S
O1002     Zr1005   2.422   1_545  S
O1002      C1004   1.285       .  A
O1003     Zr1032   2.399       .  S
O1003      C1004   1.280       .  A
C1004      C2161   1.441       .  S
Zr1005     O1006   2.434   1_565  S
Zr1005     O1007   2.435       .  S
Zr1005     O1011   2.353   1_566  S
Zr1005     O1012   2.364   1_565  S
Zr1005     O1035   2.357   1_565  S
Zr1005     O1037   2.347       .  S
O1006      H1049   0.990       .  S
O1007      H1048   0.990       .  S
O1007      H1052   0.990       .  S
Zr1008     O1009   2.437       .  S
Zr1008     O1010   2.434       .  S
Zr1008     O1012   2.337   1_554  S
Zr1008     O1011   2.351       .  S
Zr1008     O1036   2.352       .  S
Zr1008     O1038   2.332   1_554  S
O1009      H1050   0.990   1_554  S
O1009      H1053   0.990       .  S
O1010      H1043   0.990       .  S
O1011     Zr1031   2.385   1_545  S
O1012     Zr1032   2.391       .  S
O1012      H1039   0.966       .  S
O1013     Zr1025   2.505       .  S
O1013      C1015   1.298   1_565  A
O1014     Zr1032   2.416       .  S
O1014      C1015   1.284       .  A
C1015      C1958   1.506       .  S
O1016     Zr1028   2.501       .  S
O1016      C1018   1.298       .  A
O1017     Zr1031   2.412       .  S
O1017      C1018   1.283   1_565  A
C1018      C1968   1.498       .  S
O1019     Zr1028   2.503   1_556  S
O1019      C1021   1.298       .  A
O1020     Zr1032   2.431       .  S
O1020      C1021   1.286       .  A
C1021      C1951   1.505       .  S
O1022     Zr1025   2.490       .  S
O1022      C1024   1.296       .  A
O1023     Zr1031   2.427       .  S
O1023      C1024   1.287   1_554  A
C1024      C1938   1.500       .  S
Zr1025     O1026   2.438       .  S
Zr1025     O1027   2.435       .  S
Zr1025     O1033   2.409   1_565  S
Zr1025     O1034   2.409   1_556  S
Zr1025     O1037   2.387       .  S
Zr1025     O1035   2.362   1_565  S
O1026      H1046   0.989       .  S
O1026      H1051   0.989       .  S
O1027      H1047   0.990       .  S
Zr1028     O1029   2.434   1_554  S
Zr1028     O1030   2.437       .  S
Zr1028     O1034   2.401   1_545  S
Zr1028     O1033   2.411   1_554  S
Zr1028     O1038   2.353   1_554  S
Zr1028     O1036   2.379       .  S
O1029      H1045   0.990   1_556  S
O1030      H1044   0.990       .  S
O1030      H1054   0.990       .  S
Zr1031     O1034   2.388       .  S
Zr1031     O1036   2.380   1_565  S
Zr1031     O1037   2.387   1_554  S
Zr1032     O1033   2.398       .  S
Zr1032     O1035   2.377       .  S
Zr1032     O1038   2.361       .  S
O1033      H1041   0.966       .  S
O1036      H1040   0.964       .  S
O1037      H1042   0.964       .  S
O1055     Zr1067   2.439       .  S
O1055      C1057   1.288   1_545  A
O1056     Zr1093   2.384       .  S
O1056      C1057   1.277       .  A
C1057      C2031   1.451       .  S
O1058     Zr1070   2.412   1_545  S
O1058      C1060   1.272       .  A
O1059     Zr1094   2.408       .  S
O1059      C1060   1.281       .  A
C1060      C2168   1.451       .  S
O1061     Zr1070   2.409       .  S
O1061      C1063   1.273   1_556  A
O1062     Zr1093   2.409       .  S
O1062      C1063   1.276       .  A
C1063      C2248   1.459   1_554  S
O1064     Zr1067   2.411       .  S
O1064      C1066   1.274   1_554  A
O1065     Zr1094   2.441       .  S
O1065      C1066   1.287       .  A
C1066      C2101   1.457       .  S
Zr1067     O1068   2.435       .  S
Zr1067     O1069   2.437       .  S
Zr1067     O1073   2.339   1_545  S
Zr1067     O1074   2.375   1_554  S
Zr1067     O1097   2.359       .  S
Zr1067     O1099   2.350       .  S
O1068      H1111   0.990       .  S
O1069      H1110   0.990       .  S
O1069      H1114   0.990       .  S
Zr1070     O1071   2.437       .  S
Zr1070     O1072   2.436       .  S
Zr1070     O1074   2.372   1_565  S
Zr1070     O1073   2.359   1_556  S
Zr1070     O1098   2.357       .  S
Zr1070     O1100   2.342   1_565  S
O1071      H1112   0.990   1_565  S
O1071      H1115   0.990       .  S
O1072      H1105   0.990       .  S
O1073     Zr1093   2.388       .  S
O1074     Zr1094   2.405       .  S
O1074      H1101   0.965       .  S
O1075     Zr1087   2.519       .  S
O1075      C1077   1.301   1_554  A
O1076     Zr1094   2.395       .  S
O1076      C1077   1.281       .  A
C1077      C1898   1.503       .  S
O1078     Zr1090   2.512   1_565  S
O1078      C1080   1.299   1_556  A
O1079     Zr1093   2.414       .  S
O1079      C1080   1.283       .  A
C1080      C1908   1.509       .  S
O1081     Zr1090   2.507       .  S
O1081      C1083   1.300       .  A
O1082     Zr1094   2.423       .  S
O1082      C1083   1.286       .  A
C1083      C1921   1.504       .  S
O1084     Zr1087   2.496       .  S
O1084      C1086   1.298       .  A
O1085     Zr1093   2.425       .  S
O1085      C1086   1.287   1_565  A
C1086      C1928   1.501       .  S
Zr1087     O1088   2.438       .  S
Zr1087     O1089   2.435       .  S
Zr1087     O1095   2.407   1_554  S
Zr1087     O1096   2.409       .  S
Zr1087     O1099   2.395       .  S
Zr1087     O1097   2.350       .  S
O1088      H1108   0.989       .  S
O1088      H1113   0.989       .  S
O1089      H1109   0.990       .  S
Zr1090     O1091   2.434       .  S
Zr1090     O1092   2.437   1_545  S
Zr1090     O1096   2.404   1_556  S
Zr1090     O1095   2.412       .  S
Zr1090     O1100   2.350       .  S
Zr1090     O1098   2.385   1_545  S
O1091      H1107   0.990       .  S
O1092      H1106   0.990       .  S
O1092      H1116   0.990       .  S
Zr1093     O1096   2.386   1_565  S
Zr1093     O1098   2.402   1_554  S
Zr1093     O1099   2.391   1_565  S
Zr1094     O1095   2.406       .  S
Zr1094     O1097   2.371   1_556  S
Zr1094     O1100   2.360       .  S
O1095      H1103   0.966       .  S
O1098      H1102   0.963       .  S
O1099      H1104   0.964       .  S
O1117     Zr1129   2.409       .  S
O1117      C1119   1.279       .  A
O1118     Zr1155   2.412       .  S
O1118      C1119   1.281   1_655  A
C1119      C1891   1.462       .  S
O1120     Zr1132   2.398       .  S
O1120      C1122   1.275   1_655  A
O1121     Zr1156   2.432       .  S
O1121      C1122   1.285       .  A
C1122      C1881   1.469       .  S
O1123     Zr1132   2.399       .  S
O1123      C1125   1.278       .  A
O1124     Zr1155   2.389       .  S
O1124      C1125   1.279       .  A
C1125      C1858   1.425       .  S
O1126     Zr1129   2.413       .  S
O1126      C1128   1.283       .  A
O1127     Zr1156   2.423       .  S
O1127      C1128   1.285       .  A
C1128      C1868   1.451       .  S
Zr1129     O1130   2.434       .  S
Zr1129     O1131   2.437       .  S
Zr1129     O1135   2.365       .  S
Zr1129     O1136   2.363       .  S
Zr1129     O1159   2.346       .  S
Zr1129     O1161   2.351       .  S
O1130      H1173   0.990       .  S
O1131      H1172   0.990       .  S
O1131      H1176   0.990       .  S
Zr1132     O1133   2.437       .  S
Zr1132     O1134   2.434       .  S
Zr1132     O1136   2.342   1_655  S
Zr1132     O1135   2.352   1_655  S
Zr1132     O1160   2.340       .  S
Zr1132     O1162   2.348   1_655  S
O1133      H1174   0.990       .  S
O1133      H1177   0.990       .  S
O1134      H1167   0.990       .  S
O1135     Zr1155   2.394   1_455  S
O1136     Zr1156   2.397       .  S
O1136      H1163   0.965       .  S
O1137     Zr1149   2.490       .  S
O1137      C1139   1.297       .  A
O1138     Zr1156   2.436       .  S
O1138      C1139   1.290       .  A
C1139      C1818   1.502       .  S
O1140     Zr1152   2.512       .  S
O1140      C1142   1.302       .  A
O1141     Zr1155   2.436       .  S
O1141      C1142   1.289       .  A
C1142      C1851   1.509       .  S
O1143     Zr1152   2.509       .  S
O1143      C1145   1.300   1_655  A
O1144     Zr1156   2.422       .  S
O1144      C1145   1.285       .  A
C1145      C1831   1.507       .  S
O1146     Zr1149   2.506       .  S
O1146      C1148   1.299       .  A
O1147     Zr1155   2.421       .  S
O1147      C1148   1.287   1_655  A
C1148      C1838   1.508       .  S
Zr1149     O1150   2.435       .  S
Zr1149     O1151   2.436       .  S
Zr1149     O1157   2.406       .  S
Zr1149     O1158   2.402       .  S
Zr1149     O1161   2.373       .  S
Zr1149     O1159   2.370       .  S
O1150      H1170   0.990       .  S
O1150      H1175   0.990       .  S
O1151      H1171   0.990       .  S
Zr1152     O1153   2.434   1_655  S
Zr1152     O1154   2.437       .  S
Zr1152     O1158   2.401   1_655  S
Zr1152     O1157   2.409   1_655  S
Zr1152     O1162   2.354   1_655  S
Zr1152     O1160   2.378       .  S
O1153      H1169   0.990   1_455  S
O1154      H1168   0.990       .  S
O1154      H1178   0.990       .  S
Zr1155     O1158   2.386   1_655  S
Zr1155     O1160   2.382       .  S
Zr1155     O1161   2.389   1_655  S
Zr1156     O1157   2.411       .  S
Zr1156     O1159   2.373       .  S
Zr1156     O1162   2.372       .  S
O1157      H1165   0.966       .  S
O1160      H1164   0.960       .  S
O1161      H1166   0.963       .  S
O1179     Zr1191   2.458       .  S
O1179      C1181   1.291   1_545  A
O1180     Zr1217   2.380       .  S
O1180      C1181   1.276       .  A
C1181      C1798   1.452       .  S
O1182     Zr1194   2.424       .  S
O1182      C1184   1.284       .  A
O1183     Zr1218   2.403       .  S
O1183      C1184   1.280       .  A
C1184      C1811   1.446       .  S
O1185     Zr1194   2.356   1_565  S
O1185      C1187   1.274       .  A
O1186     Zr1217   2.429       .  S
O1186      C1187   1.286       .  A
C1187      C1861   1.451       .  S
O1188     Zr1191   2.418       .  S
O1188      C1190   1.286       .  A
O1189     Zr1218   2.399       .  S
O1189      C1190   1.280       .  A
C1190      C1788   1.442       .  S
Zr1191     O1192   2.434       .  S
Zr1191     O1193   2.435       .  S
Zr1191     O1197   2.356       .  S
Zr1191     O1198   2.357       .  S
Zr1191     O1221   2.362       .  S
Zr1191     O1223   2.329       .  S
O1192      H1235   0.990       .  S
O1193      H1234   0.990       .  S
O1193      H1238   0.990       .  S
Zr1194     O1195   2.437       .  S
Zr1194     O1196   2.434   1_545  S
Zr1194     O1198   2.323       .  S
Zr1194     O1197   2.368       .  S
Zr1194     O1222   2.358   1_545  S
Zr1194     O1224   2.328       .  S
O1195      H1236   0.990       .  S
O1195      H1239   0.990   1_545  S
O1196      H1229   0.990       .  S
O1197     Zr1217   2.385   1_545  S
O1198     Zr1218   2.391       .  S
O1198      H1225   0.963       .  S
O1199     Zr1211   2.518       .  S
O1199      C1201   1.300       .  A
O1200     Zr1218   2.411       .  S
O1200      C1201   1.282       .  A
C1201      C1751   1.510       .  S
O1202     Zr1214   2.521       .  S
O1202      C1204   1.301       .  A
O1203     Zr1217   2.402       .  S
O1203      C1204   1.281       .  A
C1204      C1778   1.505       .  S
O1205     Zr1214   2.495   1_545  S
O1205      C1207   1.298       .  A
O1206     Zr1218   2.446       .  S
O1206      C1207   1.290       .  A
C1207      C1771   1.503       .  S
O1208     Zr1211   2.488       .  S
O1208      C1210   1.297   1_545  A
O1209     Zr1217   2.436       .  S
O1209      C1210   1.289       .  A
C1210      C1761   1.497       .  S
Zr1211     O1212   2.438       .  S
Zr1211     O1213   2.434       .  S
Zr1211     O1219   2.409       .  S
Zr1211     O1220   2.413   1_545  S
Zr1211     O1223   2.386       .  S
Zr1211     O1221   2.355       .  S
O1212      H1232   0.989       .  S
O1212      H1237   0.989       .  S
O1213      H1233   0.990       .  S
Zr1214     O1215   2.434       .  S
Zr1214     O1216   2.438       .  S
Zr1214     O1220   2.399       .  S
Zr1214     O1219   2.416   1_565  S
Zr1214     O1224   2.365   1_565  S
Zr1214     O1222   2.370       .  S
O1215      H1231   0.990       .  S
O1216      H1230   0.990       .  S
O1216      H1240   0.990       .  S
Zr1217     O1220   2.389       .  S
Zr1217     O1222   2.381       .  S
Zr1217     O1223   2.384   1_565  S
Zr1218     O1219   2.399       .  S
Zr1218     O1221   2.382       .  S
Zr1218     O1224   2.362       .  S
O1219      H1227   0.965       .  S
O1222      H1226   0.963       .  S
O1223      H1228   0.963       .  S
O1241     Zr1253   2.446       .  S
O1241      C1243   1.289       .  A
O1242     Zr1279   2.384       .  S
O1242      C1243   1.277       .  A
C1243      C1871   1.446       .  S
O1244     Zr1256   2.378       .  S
O1244      C1246   1.274       .  A
O1245     Zr1280   2.439       .  S
O1245      C1246   1.287       .  A
C1246      C1721   1.450       .  S
O1247     Zr1256   2.410       .  S
O1247      C1249   1.274       .  A
O1248     Zr1279   2.401       .  S
O1248      C1249   1.274   1_565  A
C1249      C1731   1.456       .  S
O1250     Zr1253   2.419   1_545  S
O1250      C1252   1.275       .  A
O1251     Zr1280   2.403       .  S
O1251      C1252   1.280       .  A
C1252      C1741   1.443       .  S
Zr1253     O1254   2.436   1_565  S
Zr1253     O1255   2.436       .  S
Zr1253     O1259   2.345   1_565  S
Zr1253     O1260   2.363   1_565  S
Zr1253     O1283   2.360   1_565  S
Zr1253     O1285   2.345       .  S
O1254      H1297   0.990       .  S
O1255      H1296   0.990       .  S
O1255      H1300   0.990       .  S
Zr1256     O1257   2.442       .  S
Zr1256     O1258   2.438       .  S
Zr1256     O1260   2.362       .  S
Zr1256     O1259   2.349       .  S
Zr1256     O1284   2.344       .  S
Zr1256     O1286   2.356       .  S
O1257      H1298   0.990       .  S
O1257      H1301   0.990       .  S
O1258      H1291   0.990       .  S
O1259     Zr1279   2.390   1_545  S
O1260     Zr1280   2.400       .  S
O1260      H1287   0.965       .  S
O1261     Zr1273   2.502   1_545  S
O1261      C1263   1.298       .  A
O1262     Zr1280   2.414       .  S
O1262      C1263   1.285       .  A
C1263      C1678   1.504       .  S
O1264     Zr1276   2.498       .  S
O1264      C1266   1.297       .  A
O1265     Zr1279   2.415       .  S
O1265      C1266   1.283   1_565  A
C1266      C1708   1.502       .  S
O1267     Zr1276   2.497       .  S
O1267      C1269   1.297       .  A
O1268     Zr1280   2.416       .  S
O1268      C1269   1.285       .  A
C1269      C1688   1.498       .  S
O1270     Zr1273   2.500       .  S
O1270      C1272   1.298       .  A
O1271     Zr1279   2.421       .  S
O1271      C1272   1.286       .  A
C1272      C1698   1.504       .  S
Zr1273     O1274   2.438   1_565  S
Zr1273     O1275   2.434       .  S
Zr1273     O1281   2.414   1_565  S
Zr1273     O1282   2.400   1_565  S
Zr1273     O1285   2.395       .  S
Zr1273     O1283   2.352   1_565  S
O1274      H1294   0.990       .  S
O1274      H1299   0.989       .  S
O1275      H1295   0.990       .  S
Zr1276     O1277   2.434       .  S
Zr1276     O1278   2.438       .  S
Zr1276     O1282   2.407       .  S
Zr1276     O1281   2.404       .  S
Zr1276     O1286   2.369       .  S
Zr1276     O1284   2.378       .  S
O1277      H1293   0.990       .  S
O1278      H1292   0.990       .  S
O1278      H1302   0.990       .  S
Zr1279     O1282   2.384   1_565  S
Zr1279     O1284   2.400   1_565  S
Zr1279     O1285   2.389       .  S
Zr1280     O1281   2.403       .  S
Zr1280     O1283   2.378       .  S
Zr1280     O1286   2.369       .  S
O1281      H1289   0.966       .  S
O1284      H1288   0.963       .  S
O1285      H1290   0.963       .  S
O1303     Zr1315   2.514       .  S
O1303      C1305   1.300       .  A
O1304     Zr1341   2.412       .  S
O1304      C1305   1.283       .  A
C1305      C1628   1.505       .  S
O1306     Zr1318   2.447   1_455  S
O1306      C1308   1.290       .  A
O1307     Zr1342   2.382       .  S
O1307      C1308   1.278       .  A
C1308      C1658   1.456       .  S
O1309     Zr1318   2.414       .  S
O1309      C1311   1.286       .  A
O1310     Zr1341   2.403       .  S
O1310      C1311   1.281       .  A
C1311      C1791   1.448       .  S
O1312     Zr1315   2.484       .  S
O1312      C1314   1.296   1_655  A
O1313     Zr1342   2.448       .  S
O1313      C1314   1.291       .  A
C1314      C1651   1.500       .  S
Zr1315     O1316   2.435       .  S
Zr1315     O1317   2.438       .  S
Zr1315     O1321   2.357       .  S
Zr1315     O1322   2.387       .  S
Zr1315     O1345   2.413   1_655  S
Zr1315     O1347   2.407       .  S
O1316      H1359   0.990       .  S
O1317      H1358   0.989       .  S
O1317      H1362   0.989       .  S
Zr1318     O1319   2.435       .  S
Zr1318     O1320   2.434       .  S
Zr1318     O1322   2.339       .  S
Zr1318     O1321   2.355       .  S
Zr1318     O1346   2.368       .  S
Zr1318     O1348   2.353   1_655  S
O1319      H1360   0.990       .  S
O1319      H1363   0.990       .  S
O1320      H1353   0.990       .  S
O1321     Zr1341   2.380       .  S
O1322     Zr1342   2.389   1_655  S
O1322      H1349   0.964       .  S
O1323     Zr1335   2.508       .  S
O1323      C1325   1.299       .  A
O1324     Zr1342   2.413       .  S
O1324      C1325   1.283       .  A
C1325      C1638   1.497       .  S
O1326     Zr1338   2.408       .  S
O1326      C1328   1.278   1_455  A
O1327     Zr1341   2.409       .  S
O1327      C1328   1.279       .  A
C1328      C1668   1.465       .  S
O1329     Zr1338   2.366       .  S
O1329      C1331   1.273       .  A
O1330     Zr1342   2.442       .  S
O1330      C1331   1.288       .  A
C1331      C1718   1.444       .  S
O1332     Zr1335   2.509       .  S
O1332      C1334   1.300   1_455  A
O1333     Zr1341   2.432       .  S
O1333      C1334   1.286       .  A
C1334      C1621   1.510       .  S
Zr1335     O1336   2.438       .  S
Zr1335     O1337   2.434       .  S
Zr1335     O1343   2.385       .  S
Zr1335     O1344   2.348       .  S
Zr1335     O1347   2.415   1_455  S
Zr1335     O1345   2.401       .  S
O1336      H1356   0.990       .  S
O1336      H1361   0.990       .  S
O1337      H1357   0.990       .  S
Zr1338     O1339   2.434       .  S
Zr1338     O1340   2.437       .  S
Zr1338     O1344   2.329       .  S
Zr1338     O1343   2.356       .  S
Zr1338     O1348   2.358       .  S
Zr1338     O1346   2.328   1_455  S
O1339      H1355   0.990       .  S
O1340      H1354   0.990       .  S
O1340      H1364   0.990       .  S
Zr1341     O1344   2.362   1_655  S
Zr1341     O1346   2.401       .  S
Zr1341     O1347   2.401       .  S
Zr1342     O1343   2.386       .  S
Zr1342     O1345   2.393       .  S
Zr1342     O1348   2.387       .  S
O1343      H1351   0.964       .  S
O1346      H1350   0.965       .  S
O1347      H1352   0.965       .  S
O1365     Zr1377   2.500       .  S
O1365      C1367   1.297       .  A
O1366     Zr1403   2.410       .  S
O1366      C1367   1.282   1_655  A
C1367      C1588   1.502       .  S
O1368     Zr1380   2.421   1_545  S
O1368      C1370   1.283       .  A
O1369     Zr1404   2.390       .  S
O1369      C1370   1.278       .  A
C1370      C1728   1.438       .  S
O1371     Zr1380   2.391       .  S
O1371      C1373   1.279       .  A
O1372     Zr1403   2.427       .  S
O1372      C1373   1.286   1_655  A
C1373      C1878   1.465       .  S
O1374     Zr1377   2.503       .  S
O1374      C1376   1.299   1_565  A
O1375     Zr1404   2.429       .  S
O1375      C1376   1.287       .  A
C1376      C1578   1.506       .  S
Zr1377     O1378   2.436       .  S
Zr1377     O1379   2.435       .  S
Zr1377     O1383   2.363       .  S
Zr1377     O1384   2.372       .  S
Zr1377     O1407   2.403   1_565  S
Zr1377     O1409   2.403   1_455  S
O1378      H1421   0.990       .  S
O1379      H1420   0.990       .  S
O1379      H1424   0.990       .  S
Zr1380     O1381   2.439       .  S
Zr1380     O1382   2.435       .  S
Zr1380     O1384   2.342       .  S
Zr1380     O1383   2.355       .  S
Zr1380     O1408   2.351   1_455  S
Zr1380     O1410   2.338   1_565  S
O1381      H1422   0.990       .  S
O1381      H1425   0.990       .  S
O1382      H1415   0.990       .  S
O1383     Zr1403   2.369   1_455  S
O1384     Zr1404   2.385   1_565  S
O1384      H1411   0.960       .  S
O1385     Zr1397   2.497       .  S
O1385      C1387   1.297   1_655  A
O1386     Zr1404   2.416       .  S
O1386      C1387   1.285       .  A
C1387      C1611   1.496       .  S
O1388     Zr1400   2.413       .  S
O1388      C1390   1.282   1_545  A
O1389     Zr1403   2.415       .  S
O1389      C1390   1.283       .  A
C1390      C1801   1.449       .  S
O1391     Zr1400   2.407   1_455  S
O1391      C1393   1.282       .  A
O1392     Zr1404   2.421       .  S
O1392      C1393   1.284       .  A
C1393      C1661   1.457       .  S
O1394     Zr1397   2.495       .  S
O1394      C1396   1.298   1_545  A
O1395     Zr1403   2.420       .  S
O1395      C1396   1.286       .  A
C1396      C1601   1.499       .  S
Zr1397     O1398   2.439       .  S
Zr1397     O1399   2.434       .  S
Zr1397     O1405   2.387       .  S
Zr1397     O1406   2.362       .  S
Zr1397     O1409   2.406   1_545  S
Zr1397     O1407   2.401   1_655  S
O1398      H1418   0.990       .  S
O1398      H1423   0.990       .  S
O1399      H1419   0.990       .  S
Zr1400     O1401   2.435       .  S
Zr1400     O1402   2.436       .  S
Zr1400     O1406   2.342       .  S
Zr1400     O1405   2.354       .  S
Zr1400     O1410   2.360   1_655  S
Zr1400     O1408   2.362   1_545  S
O1401      H1417   0.990       .  S
O1402      H1416   0.990       .  S
O1402      H1426   0.990       .  S
Zr1403     O1406   2.369   1_565  S
Zr1403     O1408   2.388       .  S
Zr1403     O1409   2.403       .  S
Zr1404     O1405   2.388   1_455  S
Zr1404     O1407   2.388       .  S
Zr1404     O1410   2.387       .  S
O1405      H1413   0.964       .  S
O1408      H1412   0.966       .  S
O1409      H1414   0.966       .  S
O1427     Zr1439   2.409   1_465  S
O1427      C1429   1.282       .  A
O1428     Zr1465   2.413   1_565  S
O1428      C1429   1.283       .  A
C1429      C1888   1.446       .  S
O1430     Zr1442   2.409       .  S
O1430      C1432   1.283   1_455  A
O1431     Zr1466   2.407       .  S
O1431      C1432   1.282       .  A
C1432      C1671   1.454       .  S
O1433     Zr1442   2.394       .  S
O1433      C1435   1.280       .  A
O1434     Zr1465   2.414       .  S
O1434      C1435   1.283       .  A
C1435      C1738   1.458       .  S
O1436     Zr1439   2.427       .  S
O1436      C1438   1.286       .  A
O1437     Zr1466   2.389       .  S
O1437      C1438   1.278       .  A
C1438      C1808   1.438       .  S
Zr1439     O1440   2.434       .  S
Zr1439     O1441   2.435   1_545  S
Zr1439     O1445   2.365   1_655  S
Zr1439     O1446   2.355       .  S
Zr1439     O1469   2.345       .  S
Zr1439     O1471   2.360   1_645  S
O1440      H1483   0.990       .  S
O1441      H1482   0.990       .  S
O1441      H1486   0.990       .  S
Zr1442     O1443   2.436       .  S
Zr1442     O1444   2.434       .  S
Zr1442     O1446   2.333   1_455  S
Zr1442     O1445   2.357       .  S
Zr1442     O1470   2.348       .  S
Zr1442     O1472   2.348       .  S
O1443      H1484   0.990       .  S
O1443      H1487   0.990       .  S
O1444      H1477   0.990       .  S
O1445     Zr1465   2.385       .  S
O1446     Zr1466   2.386       .  S
O1446      H1473   0.965       .  S
O1447     Zr1459   2.512       .  S
O1447      C1449   1.301       .  A
O1448     Zr1466   2.424       .  S
O1448      C1449   1.285       .  A
C1449      C1538   1.508       .  S
O1450     Zr1462   2.504       .  S
O1450      C1452   1.299       .  A
O1451     Zr1465   2.416       .  S
O1451      C1452   1.285       .  A
C1452      C1561   1.499       .  S
O1453     Zr1462   2.518       .  S
O1453      C1455   1.300       .  A
O1454     Zr1466   2.410       .  S
O1454      C1455   1.281   1_655  A
C1455      C1548   1.509       .  S
O1456     Zr1459   2.510   1_465  S
O1456      C1458   1.300       .  A
O1457     Zr1465   2.409   1_565  S
O1457      C1458   1.283       .  A
C1458      C1568   1.505       .  S
Zr1459     O1460   2.438   1_655  S
Zr1459     O1461   2.434   1_545  S
Zr1459     O1467   2.410   1_655  S
Zr1459     O1468   2.406   1_655  S
Zr1459     O1471   2.371   1_645  S
Zr1459     O1469   2.361       .  S
O1460      H1480   0.989       .  S
O1460      H1485   0.990   1_455  S
O1461      H1481   0.990       .  S
Zr1462     O1463   2.434       .  S
Zr1462     O1464   2.437       .  S
Zr1462     O1468   2.407       .  S
Zr1462     O1467   2.409       .  S
Zr1462     O1472   2.355       .  S
Zr1462     O1470   2.379       .  S
O1463      H1479   0.990       .  S
O1464      H1478   0.990       .  S
O1464      H1488   0.990       .  S
Zr1465     O1468   2.392       .  S
Zr1465     O1470   2.382       .  S
Zr1465     O1471   2.384   1_545  S
Zr1466     O1467   2.397   1_655  S
Zr1466     O1469   2.368       .  S
Zr1466     O1472   2.371   1_655  S
O1467      H1475   0.965   1_455  S
O1470      H1474   0.963       .  S
O1471      H1476   0.963       .  S
C1489      C1490   1.366       .  D
C1489      C2328   1.499       .  S
C1489      C2368   1.495       .  S
C1490      C1608   1.495       .  S
C1490      C1648   1.501       .  S
C1491      C1492   1.364   1_545  D
C1491      C1931   1.498       .  S
C1491      C2008   1.495       .  S
C1492      C1598   1.497       .  S
C1492      C1758   1.499       .  S
C1493      C1494   1.364       .  D
C1493      C2291   1.499       .  S
C1493      C2361   1.490       .  S
C1494      C1591   1.498       .  S
C1494      C1828   1.505       .  S
C1495      C1496   1.367       .  D
C1495      C1971   1.498       .  S
C1495      C1998   1.505       .  S
C1496      C1581   1.505       .  S
C1496      C1711   1.500       .  S
C1497      C1498   1.362       .  D
C1497      C2651   1.495       .  S
C1497      C2918   1.497       .  S
C1498      C1641   1.500       .  S
C1498      C1691   1.498       .  S
C1499      C1500   1.375       .  D
C1499      C2731   1.507       .  S
C1499      C2931   1.505       .  S
C1500      C1631   1.514       .  S
C1500      C1748   1.510       .  S
C1501      C1502   1.368       .  D
C1501      C2641   1.501       .  S
C1501      C2781   1.503       .  S
C1502      C1701   1.502       .  S
C1502      C1821   1.503       .  S
C1503      C1504   1.367       .  D
C1503      C1961   1.503       .  S
C1503      C2121   1.504       .  S
C1504      C1558   1.501       .  S
C1504      C1681   1.500       .  S
C1505      C1506   1.366       .  D
C1505      C2318   1.500       .  S
C1505      C2431   1.496       .  S
C1506      C1948   1.503       .  S
C1506      C2051   1.506       .  S
C1507      C1508   1.367       .  D
C1507      C2268   1.503       .  S
C1507      C2421   1.499       .  S
C1508      C1941   1.496       .  S
C1508      C2181   1.500       .  S
C1509      C1510   1.371       .  D
C1509      C2788   1.502       .  S
C1509      C2858   1.503       .  S
C1510      C1991   1.507       .  S
C1510      C2201   1.507       .  S
C1511      C1512   1.368       .  D
C1511      C2851   1.503       .  S
C1511      C2911   1.499       .  S
C1512      C1978   1.501       .  S
C1512      C2071   1.495       .  S
C1513      C1514   1.367       .  D
C1513      C2691   1.505       .  S
C1513      C2898   1.501       .  S
C1514      C2061   1.498       .  S
C1514      C2128   1.504       .  S
C1515      C1516   1.371   1_655  D
C1515      C2308   1.505       .  S
C1515      C2478   1.500       .  S
C1516      C1551   1.508       .  S
C1516      C1618   1.505   1_455  S
C1517      C1518   1.373       .  D
C1517      C1901   1.504       .  S
C1517      C2041   1.501       .  S
C1518      C2301   1.507       .  S
C1518      C2541   1.503       .  S
C1519      C1520   1.364       .  D
C1519      C2628   1.496       .  S
C1519      C2841   1.499       .  S
C1520      C2351   1.495       .  S
C1520      C2411   1.491       .  S
C1521      C1522   1.371       .  D
C1521      C2341   1.502       .  S
C1521      C2561   1.505       .  S
C1522      C2738   1.502       .  S
C1522      C2828   1.503       .  S
C1523      C1524   1.367       .  D
C1523      C2621   1.496       .  S
C1523      C2681   1.503       .  S
C1524      C2401   1.497       .  S
C1524      C2471   1.505       .  S
C1525      C1526   1.369       .  D
C1525      C2281   1.501       .  S
C1525      C2491   1.498       .  S
C1526      C1571   1.500       .  S
C1526      C1841   1.508       .  S
C1527      C1528   1.367       .  D
C1527      C1918   1.499       .  S
C1527      C2111   1.501       .  S
C1528      C1541   1.504       .  S
C1528      C1768   1.504       .  S
C1529      C1530   1.369       .  D
C1529      C2261   1.505       .  S
C1529      C2551   1.507       .  S
C1530      C1911   1.507       .  S
C1530      C2191   1.506       .  S
C1531      C1532   1.372       .  D
C1531      C2501   1.508       .  S
C1531      C2571   1.503       .  S
C1532      C2671   1.506       .  S
C1532      C2721   1.508       .  S
C1533      C1534   1.373       .  D
C1533      C2711   1.502       .  S
C1533      C2761   1.503       .  S
C1534      C1781   1.508       .  S
C1534      C1848   1.511       .  S
C1535      C1536   1.373       .  D
C1535      C2141   1.512       .  S
C1535      C2211   1.500       .  S
C1536      C2658   1.504       .  S
C1536      C2771   1.500       .  S
C1537      C1538   1.411       .  A
C1537      C1542   1.409       .  A
C1537      H1544   1.083   1_545  S
C1538      C1539   1.416       .  A
C1539      C1540   1.407       .  A
C1539      F1546   1.357       .  S
C1540      C1541   1.404       .  A
C1540      H1545   1.083       .  S
C1541      C1542   1.407       .  A
C1542      F1543   1.356   1_545  S
C1547      C1548   1.413   1_655  A
C1547      C1552   1.404       .  A
C1547      H1554   1.083       .  S
C1548      C1549   1.414       .  A
C1549      C1550   1.412       .  A
C1549      F1556   1.357       .  S
C1550      C1551   1.407       .  A
C1550      H1555   1.082       .  S
C1551      C1552   1.405   1_455  A
C1552      F1553   1.357       .  S
C1557      C1558   1.405       .  A
C1557      C1562   1.406       .  A
C1557      H1564   1.082       .  S
C1558      C1559   1.404       .  A
C1559      C1560   1.404       .  A
C1559      F1566   1.357   1_545  S
C1560      C1561   1.411       .  A
C1560      H1565   1.083   1_545  S
C1561      C1562   1.412       .  A
C1562      F1563   1.357       .  S
C1567      C1568   1.410       .  A
C1567      C1572   1.409       .  A
C1567      H1574   1.083   1_455  S
C1568      C1569   1.418       .  A
C1569      C1570   1.402       .  A
C1569      F1576   1.357       .  S
C1570      C1571   1.399       .  A
C1570      H1575   1.083       .  S
C1571      C1572   1.409       .  A
C1572      F1573   1.356   1_455  S
C1577      C1578   1.412       .  A
C1577      C1582   1.406       .  A
C1577      H1584   1.083       .  S
C1578      C1579   1.415   1_545  A
C1579      C1580   1.409       .  A
C1579      F1586   1.357       .  S
C1580      C1581   1.406   1_565  A
C1580      H1585   1.083       .  S
C1581      C1582   1.406       .  A
C1582      F1583   1.356       .  S
C1587      C1588   1.411   1_655  A
C1587      C1592   1.401       .  A
C1587      H1594   1.083       .  S
C1588      C1589   1.414       .  A
C1589      C1590   1.409       .  A
C1589      F1596   1.357       .  S
C1590      C1591   1.405       .  A
C1590      H1595   1.083       .  S
C1591      C1592   1.404   1_455  A
C1592      F1593   1.357       .  S
C1597      C1598   1.404   1_545  A
C1597      C1602   1.406       .  A
C1597      H1604   1.083       .  S
C1598      C1599   1.404       .  A
C1599      C1600   1.401       .  A
C1599      F1606   1.355       .  S
C1600      C1601   1.410       .  A
C1600      H1605   1.083       .  S
C1601      C1602   1.414   1_565  A
C1602      F1603   1.357       .  S
C1607      C1608   1.404   1_655  A
C1607      C1612   1.407       .  A
C1607      H1614   1.083       .  S
C1608      C1609   1.404       .  A
C1609      C1610   1.401       .  A
C1609      F1616   1.357       .  S
C1610      C1611   1.410       .  A
C1610      H1615   1.083       .  S
C1611      C1612   1.413   1_455  A
C1612      F1613   1.357       .  S
C1617      C1618   1.403       .  A
C1617      C1622   1.405       .  A
C1617      H1624   1.083       .  S
C1618      C1619   1.407   1_655  A
C1619      C1620   1.411       .  A
C1619      F1626   1.356       .  S
C1620      C1621   1.413   1_455  A
C1620      H1625   1.083       .  S
C1621      C1622   1.417       .  A
C1622      F1623   1.357       .  S
C1627      C1628   1.412       .  A
C1627      C1632   1.413       .  A
C1627      H1634   1.083       .  S
C1628      C1629   1.412       .  A
C1629      C1630   1.402       .  A
C1629      F1636   1.357       .  S
C1630      C1631   1.407       .  A
C1630      H1635   1.082       .  S
C1631      C1632   1.410       .  A
C1632      F1633   1.355       .  S
C1637      C1638   1.409       .  A
C1637      C1642   1.406       .  A
C1637      H1644   1.083       .  S
C1638      C1639   1.412       .  A
C1639      C1640   1.407       .  A
C1639      F1646   1.357       .  S
C1640      C1641   1.405       .  A
C1640      H1645   1.083       .  S
C1641      C1642   1.406       .  A
C1642      F1643   1.357       .  S
C1647      C1648   1.402   1_655  A
C1647      C1652   1.405       .  A
C1647      H1654   1.083       .  S
C1648      C1649   1.408       .  A
C1649      C1650   1.407       .  A
C1649      F1656   1.357       .  S
C1650      C1651   1.409       .  A
C1650      H1655   1.083       .  S
C1651      C1652   1.415   1_455  A
C1652      F1653   1.357       .  S
C1657      C1658   1.396       .  A
C1657      C1662   1.386       .  A
C1657      H1664   1.084       .  S
C1658      C1659   1.407       .  A
C1659      C1660   1.396       .  A
C1659      F1666   1.357       .  S
C1660      C1661   1.400       .  A
C1660      H1665   1.084       .  S
C1661      C1662   1.406       .  A
C1662      F1663   1.358       .  S
C1667      C1668   1.403   1_455  A
C1667      C1672   1.380       .  A
C1667      H1674   1.083       .  S
C1668      C1669   1.407       .  A
C1669      C1670   1.397       .  A
C1669      F1676   1.357       .  S
C1670      C1671   1.402       .  A
C1670      H1675   1.084       .  S
C1671      C1672   1.401   1_655  A
C1672      F1673   1.358       .  S
C1677      C1678   1.412       .  A
C1677      C1682   1.404       .  A
C1677      H1684   1.083       .  S
C1678      C1679   1.414       .  A
C1679      C1680   1.407       .  A
C1679      F1686   1.357   1_545  S
C1680      C1681   1.405       .  A
C1680      H1685   1.083   1_545  S
C1681      C1682   1.404       .  A
C1682      F1683   1.356       .  S
C1687      C1688   1.409       .  A
C1687      C1692   1.401       .  A
C1687      H1694   1.083       .  S
C1688      C1689   1.415       .  A
C1689      C1690   1.408       .  A
C1689      F1696   1.357       .  S
C1690      C1691   1.405       .  A
C1690      H1695   1.083       .  S
C1691      C1692   1.408       .  A
C1692      F1693   1.357       .  S
C1697      C1698   1.413       .  A
C1697      C1702   1.403       .  A
C1697      H1704   1.083       .  S
C1698      C1699   1.414       .  A
C1699      C1700   1.407       .  A
C1699      F1706   1.357       .  S
C1700      C1701   1.407       .  A
C1700      H1705   1.083       .  S
C1701      C1702   1.403       .  A
C1702      F1703   1.356       .  S
C1707      C1708   1.411       .  A
C1707      C1712   1.407       .  A
C1707      H1714   1.083       .  S
C1708      C1709   1.415   1_545  A
C1709      C1710   1.403       .  A
C1709      F1716   1.357       .  S
C1710      C1711   1.403   1_565  A
C1710      H1715   1.083       .  S
C1711      C1712   1.407       .  A
C1712      F1713   1.356       .  S
C1717      C1718   1.397       .  A
C1717      C1722   1.396       .  A
C1717      H1724   1.083       .  S
C1718      C1719   1.403       .  A
C1719      C1720   1.383       .  A
C1719      F1726   1.359       .  S
C1720      C1721   1.399       .  A
C1720      H1725   1.084       .  S
C1721      C1722   1.397       .  A
C1722      F1723   1.340       .  S
C1727      C1728   1.403       .  A
C1727      C1732   1.391   1_545  A
C1727      H1734   1.083   1_545  S
C1728      C1729   1.393       .  A
C1729      C1730   1.383       .  A
C1729      F1736   1.359       .  S
C1730      C1731   1.403       .  A
C1730      H1735   1.076       .  S
C1731      C1732   1.400   1_545  A
C1732      F1733   1.357       .  S
C1737      C1738   1.404       .  A
C1737      C1742   1.396       .  A
C1737      H1744   1.083   1_545  S
C1738      C1739   1.407       .  A
C1739      C1740   1.379       .  A
C1739      F1746   1.359       .  S
C1740      C1741   1.394       .  A
C1740      H1745   1.085       .  S
C1741      C1742   1.402       .  A
C1742      F1743   1.356   1_545  S
C1747      C1748   1.407       .  A
C1747      C1752   1.412       .  A
C1747      H1754   1.081       .  S
C1748      C1749   1.406       .  A
C1749      C1750   1.405       .  A
C1749      F1756   1.357       .  S
C1750      C1751   1.412       .  A
C1750      H1755   1.083       .  S
C1751      C1752   1.414       .  A
C1752      F1753   1.357       .  S
C1757      C1758   1.403   1_545  A
C1757      C1762   1.403       .  A
C1757      H1764   1.083       .  S
C1758      C1759   1.407       .  A
C1759      C1760   1.406       .  A
C1759      F1766   1.355       .  S
C1760      C1761   1.409       .  A
C1760      H1765   1.083       .  S
C1761      C1762   1.414   1_565  A
C1762      F1763   1.357       .  S
C1767      C1768   1.404       .  A
C1767      C1772   1.407       .  A
C1767      H1774   1.082   1_545  S
C1768      C1769   1.410       .  A
C1769      C1770   1.407       .  A
C1769      F1776   1.357       .  S
C1770      C1771   1.410       .  A
C1770      H1775   1.083       .  S
C1771      C1772   1.417       .  A
C1772      F1773   1.357   1_545  S
C1777      C1778   1.411       .  A
C1777      C1782   1.413       .  A
C1777      H1784   1.083       .  S
C1778      C1779   1.415       .  A
C1779      C1780   1.403       .  A
C1779      F1786   1.357       .  S
C1780      C1781   1.403       .  A
C1780      H1785   1.083       .  S
C1781      C1782   1.410       .  A
C1782      F1783   1.356       .  S
C1787      C1788   1.398       .  A
C1787      C1792   1.397       .  A
C1787      H1794   1.079       .  S
C1788      C1789   1.401       .  A
C1789      C1790   1.374       .  A
C1789      F1796   1.359       .  S
C1790      C1791   1.397       .  A
C1790      H1795   1.085       .  S
C1791      C1792   1.400       .  A
C1792      F1793   1.349       .  S
C1797      C1798   1.400       .  A
C1797      C1802   1.394       .  A
C1797      H1804   1.084       .  S
C1798      C1799   1.400   1_565  A
C1799      C1800   1.392   1_545  A
C1799      F1806   1.357       .  S
C1800      C1801   1.401       .  A
C1800      H1805   1.083   1_565  S
C1801      C1802   1.403       .  A
C1802      F1803   1.358       .  S
C1807      C1808   1.391       .  A
C1807      C1812   1.384       .  A
C1807      H1814   1.082       .  S
C1808      C1809   1.402       .  A
C1809      C1810   1.391       .  A
C1809      F1816   1.359       .  S
C1810      C1811   1.399       .  A
C1810      H1815   1.080       .  S
C1811      C1812   1.393       .  A
C1812      F1813   1.341       .  S
C1817      C1818   1.409       .  A
C1817      C1822   1.405       .  A
C1817      H1824   1.083       .  S
C1818      C1819   1.416       .  A
C1819      C1820   1.407       .  A
C1819      F1826   1.357       .  S
C1820      C1821   1.403       .  A
C1820      H1825   1.083       .  S
C1821      C1822   1.409       .  A
C1822      F1823   1.356       .  S
C1827      C1828   1.405       .  A
C1827      C1832   1.407       .  A
C1827      H1834   1.083       .  S
C1828      C1829   1.406   1_455  A
C1829      C1830   1.409       .  A
C1829      F1836   1.356       .  S
C1830      C1831   1.413   1_655  A
C1830      H1835   1.083       .  S
C1831      C1832   1.414       .  A
C1832      F1833   1.357       .  S
C1837      C1838   1.414   1_655  A
C1837      C1842   1.404   1_655  A
C1837      H1844   1.083       .  S
C1838      C1839   1.413       .  A
C1839      C1840   1.409       .  A
C1839      F1846   1.357       .  S
C1840      C1841   1.409       .  A
C1840      H1845   1.083       .  S
C1841      C1842   1.403       .  A
C1842      F1843   1.357   1_455  S
C1847      C1848   1.406       .  A
C1847      C1852   1.410       .  A
C1847      H1854   1.081       .  S
C1848      C1849   1.409       .  A
C1849      C1850   1.408       .  A
C1849      F1856   1.357       .  S
C1850      C1851   1.411       .  A
C1850      H1855   1.083       .  S
C1851      C1852   1.416       .  A
C1852      F1853   1.357       .  S
C1857      C1858   1.402       .  A
C1857      C1862   1.393       .  A
C1857      H1864   1.084       .  S
C1858      C1859   1.392       .  A
C1859      C1860   1.373       .  A
C1859      F1866   1.360       .  S
C1860      C1861   1.406       .  A
C1860      H1865   1.084       .  S
C1861      C1862   1.401       .  A
C1862      F1863   1.354       .  S
C1867      C1868   1.402       .  A
C1867      C1872   1.390       .  A
C1867      H1874   1.084       .  S
C1868      C1869   1.398       .  A
C1869      C1870   1.391       .  A
C1869      F1876   1.347       .  S
C1870      C1871   1.396       .  A
C1870      H1875   1.082       .  S
C1871      C1872   1.400       .  A
C1872      F1873   1.358       .  S
C1877      C1878   1.408       .  A
C1877      C1882   1.387       .  A
C1877      H1884   1.084       .  S
C1878      C1879   1.399   1_455  A
C1879      C1880   1.391       .  A
C1879      F1886   1.358       .  S
C1880      C1881   1.411   1_655  A
C1880      H1885   1.082       .  S
C1881      C1882   1.400       .  A
C1882      F1883   1.357       .  S
C1887      C1888   1.403       .  A
C1887      C1892   1.391   1_455  A
C1887      H1894   1.084   1_455  S
C1888      C1889   1.395       .  A
C1889      C1890   1.387       .  A
C1889      F1896   1.358       .  S
C1890      C1891   1.407       .  A
C1890      H1895   1.083       .  S
C1891      C1892   1.403   1_455  A
C1892      F1893   1.357       .  S
C1897      C1898   1.412       .  A
C1897      C1902   1.402       .  A
C1897      H1904   1.083       .  S
C1898      C1899   1.412   1_556  A
C1899      C1900   1.410       .  A
C1899      F1906   1.357       .  S
C1900      C1901   1.406   1_554  A
C1900      H1905   1.083       .  S
C1901      C1902   1.405       .  A
C1902      F1903   1.357       .  S
C1907      C1908   1.413       .  A
C1907      C1912   1.406       .  A
C1907      H1914   1.083       .  S
C1908      C1909   1.415   1_554  A
C1909      C1910   1.412       .  A
C1909      F1916   1.357       .  S
C1910      C1911   1.407       .  A
C1910      H1915   1.083       .  S
C1911      C1912   1.404   1_556  A
C1912      F1913   1.357       .  S
C1917      C1918   1.403       .  A
C1917      C1922   1.405       .  A
C1917      H1924   1.082       .  S
C1918      C1919   1.405       .  A
C1919      C1920   1.406       .  A
C1919      F1926   1.357   1_545  S
C1920      C1921   1.411       .  A
C1920      H1925   1.083   1_545  S
C1921      C1922   1.415       .  A
C1922      F1923   1.357       .  S
C1927      C1928   1.411   1_565  A
C1927      C1932   1.403       .  A
C1927      H1934   1.083       .  S
C1928      C1929   1.414       .  A
C1929      C1930   1.407       .  A
C1929      F1936   1.357       .  S
C1930      C1931   1.404       .  A
C1930      H1935   1.083       .  S
C1931      C1932   1.404   1_545  A
C1932      F1933   1.357       .  S
C1937      C1938   1.411   1_554  A
C1937      C1942   1.403       .  A
C1937      H1944   1.083       .  S
C1938      C1939   1.414       .  A
C1939      C1940   1.406       .  A
C1939      F1946   1.357       .  S
C1940      C1941   1.403       .  A
C1940      H1945   1.083       .  S
C1941      C1942   1.404   1_556  A
C1942      F1943   1.357       .  S
C1947      C1948   1.404       .  A
C1947      C1952   1.406       .  A
C1947      H1954   1.083       .  S
C1948      C1949   1.406   1_556  A
C1949      C1950   1.408       .  A
C1949      F1956   1.357       .  S
C1950      C1951   1.412   1_554  A
C1950      H1955   1.083       .  S
C1951      C1952   1.414       .  A
C1952      F1953   1.357       .  S
C1957      C1958   1.412       .  A
C1957      C1962   1.402       .  A
C1957      H1964   1.083       .  S
C1958      C1959   1.415   1_545  A
C1959      C1960   1.412       .  A
C1959      F1966   1.357       .  S
C1960      C1961   1.407   1_565  A
C1960      H1965   1.083       .  S
C1961      C1962   1.405       .  A
C1962      F1963   1.356       .  S
C1967      C1968   1.409       .  A
C1967      C1972   1.405       .  A
C1967      H1974   1.083       .  S
C1968      C1969   1.414   1_545  A
C1969      C1970   1.405       .  A
C1969      F1976   1.357       .  S
C1970      C1971   1.402   1_565  A
C1970      H1975   1.083       .  S
C1971      C1972   1.406       .  A
C1972      F1973   1.356       .  S
C1977      C1978   1.404       .  A
C1977      C1982   1.407       .  A
C1977      H1984   1.083       .  S
C1978      C1979   1.405       .  A
C1979      C1980   1.404       .  A
C1979      F1986   1.357       .  S
C1980      C1981   1.411       .  A
C1980      H1985   1.083       .  S
C1981      C1982   1.413       .  A
C1982      F1983   1.357       .  S
C1987      C1988   1.411       .  A
C1987      C1992   1.411       .  A
C1987      H1994   1.083       .  S
C1988      C1989   1.419       .  A
C1989      C1990   1.405       .  A
C1989      F1996   1.357       .  S
C1990      C1991   1.401       .  A
C1990      H1995   1.083       .  S
C1991      C1992   1.410       .  A
C1992      F1993   1.357       .  S
C1997      C1998   1.406   1_565  A
C1997      C2002   1.410       .  A
C1997      H2004   1.083       .  S
C1998      C1999   1.404       .  A
C1999      C2000   1.404       .  A
C1999      F2006   1.357       .  S
C2000      C2001   1.412       .  A
C2000      H2005   1.083       .  S
C2001      C2002   1.415   1_545  A
C2002      F2003   1.357       .  S
C2007      C2008   1.402   1_565  A
C2007      C2012   1.403       .  A
C2007      H2014   1.083       .  S
C2008      C2009   1.405       .  A
C2009      C2010   1.405       .  A
C2009      F2016   1.357       .  S
C2010      C2011   1.410   1_545  A
C2010      H2015   1.083       .  S
C2011      C2012   1.414       .  A
C2012      F2013   1.357       .  S
C2017      C2018   1.404       .  A
C2017      C2022   1.396   1_545  A
C2017      H2024   1.083   1_545  S
C2018      C2019   1.396       .  A
C2019      C2020   1.378       .  A
C2019      F2026   1.359       .  S
C2020      C2021   1.406       .  A
C2020      H2025   1.084       .  S
C2021      C2022   1.404   1_545  A
C2022      F2023   1.356       .  S
C2027      C2028   1.400       .  A
C2027      C2032   1.385       .  A
C2027      H2034   1.084       .  S
C2028      C2029   1.402       .  A
C2029      C2030   1.396       .  A
C2029      F2036   1.357       .  S
C2030      C2031   1.402       .  A
C2030      H2035   1.084       .  S
C2031      C2032   1.400       .  A
C2032      F2033   1.359       .  S
C2037      C2038   1.408   1_556  A
C2037      C2042   1.403       .  A
C2037      H2044   1.083       .  S
C2038      C2039   1.410       .  A
C2039      C2040   1.410       .  A
C2039      F2046   1.357       .  S
C2040      C2041   1.407   1_554  A
C2040      H2045   1.083       .  S
C2041      C2042   1.405       .  A
C2042      F2043   1.357       .  S
C2047      C2048   1.414       .  A
C2047      C2052   1.405       .  A
C2047      H2054   1.083       .  S
C2048      C2049   1.414   1_556  A
C2049      C2050   1.413       .  A
C2049      F2056   1.357       .  S
C2050      C2051   1.408   1_554  A
C2050      H2055   1.083       .  S
C2051      C2052   1.403       .  A
C2052      F2053   1.357       .  S
C2057      C2058   1.411       .  A
C2057      C2062   1.406       .  A
C2057      H2064   1.083       .  S
C2058      C2059   1.416       .  A
C2059      C2060   1.403       .  A
C2059      F2066   1.357       .  S
C2060      C2061   1.402       .  A
C2060      H2065   1.082       .  S
C2061      C2062   1.406       .  A
C2062      F2063   1.357       .  S
C2067      C2068   1.409       .  A
C2067      C2072   1.404       .  A
C2067      H2074   1.083       .  S
C2068      C2069   1.412       .  A
C2069      C2070   1.403       .  A
C2069      F2076   1.357       .  S
C2070      C2071   1.402       .  A
C2070      H2075   1.083       .  S
C2071      C2072   1.406       .  A
C2072      F2073   1.357       .  S
C2077      C2078   1.409       .  A
C2077      C2082   1.392       .  A
C2077      H2084   1.083       .  S
C2078      C2079   1.402       .  A
C2079      C2080   1.393       .  A
C2079      F2086   1.357       .  S
C2080      C2081   1.409       .  A
C2080      H2085   1.084       .  S
C2081      C2082   1.400       .  A
C2082      F2083   1.357       .  S
C2087      C2088   1.402       .  A
C2087      C2092   1.396       .  A
C2087      H2094   1.083       .  S
C2088      C2089   1.401       .  A
C2089      C2090   1.379       .  A
C2089      F2096   1.358   1_556  S
C2090      C2091   1.400       .  A
C2090      H2095   1.083   1_556  S
C2091      C2092   1.404       .  A
C2092      F2093   1.357       .  S
C2097      C2098   1.406       .  A
C2097      C2102   1.383       .  A
C2097      H2104   1.084       .  S
C2098      C2099   1.407   1_556  A
C2099      C2100   1.402       .  A
C2099      F2106   1.357       .  S
C2100      C2101   1.405   1_554  A
C2100      H2105   1.081       .  S
C2101      C2102   1.396       .  A
C2102      F2103   1.354       .  S
C2107      C2108   1.409       .  A
C2107      C2112   1.406       .  A
C2107      H2114   1.083       .  S
C2108      C2109   1.411       .  A
C2109      C2110   1.403       .  A
C2109      F2116   1.357   1_545  S
C2110      C2111   1.406       .  A
C2110      H2115   1.083   1_545  S
C2111      C2112   1.407       .  A
C2112      F2113   1.356       .  S
C2117      C2118   1.412       .  A
C2117      C2122   1.403       .  A
C2117      H2124   1.083       .  S
C2118      C2119   1.414       .  A
C2119      C2120   1.412       .  A
C2119      F2126   1.357   1_545  S
C2120      C2121   1.406       .  A
C2120      H2125   1.083   1_545  S
C2121      C2122   1.405       .  A
C2122      F2123   1.356       .  S
C2127      C2128   1.405       .  A
C2127      C2132   1.407       .  A
C2127      H2134   1.083       .  S
C2128      C2129   1.405       .  A
C2129      C2130   1.406       .  A
C2129      F2136   1.356       .  S
C2130      C2131   1.413       .  A
C2130      H2135   1.083       .  S
C2131      C2132   1.415       .  A
C2132      F2133   1.357       .  S
C2137      C2138   1.412       .  A
C2137      C2142   1.405       .  A
C2137      H2144   1.083       .  S
C2138      C2139   1.414       .  A
C2139      C2140   1.407       .  A
C2139      F2146   1.357       .  S
C2140      C2141   1.408       .  A
C2140      H2145   1.082       .  S
C2141      C2142   1.408       .  A
C2142      F2143   1.355       .  S
C2147      C2148   1.398       .  A
C2147      C2152   1.381       .  A
C2147      H2154   1.084       .  S
C2148      C2149   1.405       .  A
C2149      C2150   1.397       .  A
C2149      F2156   1.357       .  S
C2150      C2151   1.401       .  A
C2150      H2155   1.084       .  S
C2151      C2152   1.403       .  A
C2152      F2153   1.357       .  S
C2157      C2158   1.393       .  A
C2157      C2162   1.384       .  A
C2157      H2164   1.083       .  S
C2158      C2159   1.403       .  A
C2159      C2160   1.391       .  A
C2159      F2166   1.358       .  S
C2160      C2161   1.399       .  A
C2160      H2165   1.084       .  S
C2161      C2162   1.397       .  A
C2162      F2163   1.350       .  S
C2167      C2168   1.406       .  A
C2167      C2172   1.398       .  A
C2167      H2174   1.082       .  S
C2168      C2169   1.394       .  A
C2169      C2170   1.376       .  A
C2169      F2176   1.354       .  S
C2170      C2171   1.406       .  A
C2170      H2175   1.084       .  S
C2171      C2172   1.405       .  A
C2172      F2173   1.356   1_545  S
C2177      C2178   1.410   1_554  A
C2177      C2182   1.403       .  A
C2177      H2184   1.083       .  S
C2178      C2179   1.413       .  A
C2179      C2180   1.408       .  A
C2179      F2186   1.357       .  S
C2180      C2181   1.405       .  A
C2180      H2185   1.083       .  S
C2181      C2182   1.405   1_556  A
C2182      F2183   1.357       .  S
C2187      C2188   1.411   1_554  A
C2187      C2192   1.410       .  A
C2187      H2194   1.083       .  S
C2188      C2189   1.418       .  A
C2189      C2190   1.406       .  A
C2189      F2196   1.357       .  S
C2190      C2191   1.402       .  A
C2190      H2195   1.083       .  S
C2191      C2192   1.409   1_556  A
C2192      F2193   1.357       .  S
C2197      C2198   1.411       .  A
C2197      C2202   1.411       .  A
C2197      H2204   1.083       .  S
C2198      C2199   1.419       .  A
C2199      C2200   1.406       .  A
C2199      F2206   1.357       .  S
C2200      C2201   1.401       .  A
C2200      H2205   1.083       .  S
C2201      C2202   1.409       .  A
C2202      F2203   1.357       .  S
C2207      C2208   1.409       .  A
C2207      C2212   1.404       .  A
C2207      H2214   1.083       .  S
C2208      C2209   1.414       .  A
C2209      C2210   1.404       .  A
C2209      F2216   1.357       .  S
C2210      C2211   1.402       .  A
C2210      H2215   1.083       .  S
C2211      C2212   1.407       .  A
C2212      F2213   1.357       .  S
C2217      C2218   1.401       .  A
C2217      C2222   1.398       .  A
C2217      H2224   1.083       .  S
C2218      C2219   1.405       .  A
C2219      C2220   1.386       .  A
C2219      F2226   1.357       .  S
C2220      C2221   1.397       .  A
C2220      H2225   1.084       .  S
C2221      C2222   1.407       .  A
C2222      F2223   1.358       .  S
C2227      C2228   1.402       .  A
C2227      C2232   1.381       .  A
C2227      H2234   1.082       .  S
C2228      C2229   1.401       .  A
C2229      C2230   1.387       .  A
C2229      F2236   1.357       .  S
C2230      C2231   1.401       .  A
C2230      H2235   1.084       .  S
C2231      C2232   1.396       .  A
C2232      F2233   1.359       .  S
C2237      C2238   1.404       .  A
C2237      C2242   1.395       .  A
C2237      H2244   1.084       .  S
C2238      C2239   1.399       .  A
C2239      C2240   1.385       .  A
C2239      F2246   1.358       .  S
C2240      C2241   1.402       .  A
C2240      H2245   1.084       .  S
C2241      C2242   1.402       .  A
C2242      F2243   1.358       .  S
C2247      C2248   1.406       .  A
C2247      C2252   1.385       .  A
C2247      H2254   1.081       .  S
C2248      C2249   1.400   1_556  A
C2249      C2250   1.390   1_554  A
C2249      F2256   1.356       .  S
C2250      C2251   1.404       .  A
C2250      H2255   1.081   1_556  S
C2251      C2252   1.395       .  A
C2252      F2253   1.358       .  S
C2257      C2258   1.413   1_554  A
C2257      C2262   1.405       .  A
C2257      H2264   1.083       .  S
C2258      C2259   1.413       .  A
C2259      C2260   1.411       .  A
C2259      F2266   1.357       .  S
C2260      C2261   1.407       .  A
C2260      H2265   1.083       .  S
C2261      C2262   1.404   1_556  A
C2262      F2263   1.357       .  S
C2267      C2268   1.400       .  A
C2267      C2272   1.401       .  A
C2267      H2274   1.083       .  S
C2268      C2269   1.409   1_556  A
C2269      C2270   1.412       .  A
C2269      F2276   1.356       .  S
C2270      C2271   1.411   1_554  A
C2270      H2275   1.083       .  S
C2271      C2272   1.419       .  A
C2272      F2273   1.357       .  S
C2277      C2278   1.411       .  A
C2277      C2282   1.409       .  A
C2277      H2284   1.083       .  S
C2278      C2279   1.415       .  A
C2279      C2280   1.404       .  A
C2279      F2286   1.357   1_455  S
C2280      C2281   1.402       .  A
C2280      H2285   1.083   1_455  S
C2281      C2282   1.407       .  A
C2282      F2283   1.357       .  S
C2287      C2288   1.410       .  A
C2287      C2292   1.404       .  A
C2287      H2294   1.083       .  S
C2288      C2289   1.415   1_455  A
C2289      C2290   1.406       .  A
C2289      F2296   1.357       .  S
C2290      C2291   1.402   1_655  A
C2290      H2295   1.083       .  S
C2291      C2292   1.406       .  A
C2292      F2293   1.357       .  S
C2297      C2298   1.410   1_554  A
C2297      C2302   1.409       .  A
C2297      H2304   1.083       .  S
C2298      C2299   1.419       .  A
C2299      C2300   1.404       .  A
C2299      F2306   1.357       .  S
C2300      C2301   1.401       .  A
C2300      H2305   1.083       .  S
C2301      C2302   1.411   1_556  A
C2302      F2303   1.357       .  S
C2307      C2308   1.405       .  A
C2307      C2312   1.407       .  A
C2307      H2314   1.081       .  S
C2308      C2309   1.407   1_655  A
C2309      C2310   1.403       .  A
C2309      F2316   1.357       .  S
C2310      C2311   1.411   1_455  A
C2310      H2315   1.083       .  S
C2311      C2312   1.414       .  A
C2312      F2313   1.357       .  S
C2317      C2318   1.402   1_554  A
C2317      C2322   1.401       .  A
C2317      H2324   1.083       .  S
C2318      C2319   1.406       .  A
C2319      C2320   1.409       .  A
C2319      F2326   1.357       .  S
C2320      C2321   1.411       .  A
C2320      H2325   1.083       .  S
C2321      C2322   1.415   1_556  A
C2322      F2323   1.357       .  S
C2327      C2328   1.401       .  A
C2327      C2332   1.404       .  A
C2327      H2334   1.083       .  S
C2328      C2329   1.406   1_455  A
C2329      C2330   1.406       .  A
C2329      F2336   1.357       .  S
C2330      C2331   1.411   1_655  A
C2330      H2335   1.083       .  S
C2331      C2332   1.416       .  A
C2332      F2333   1.357       .  S
C2337      C2338   1.410       .  A
C2337      C2342   1.407       .  A
C2337      H2344   1.083       .  S
C2338      C2339   1.412       .  A
C2339      C2340   1.407       .  A
C2339      F2346   1.357       .  S
C2340      C2341   1.404       .  A
C2340      H2345   1.083       .  S
C2341      C2342   1.407       .  A
C2342      F2343   1.357       .  S
C2347      C2348   1.410       .  A
C2347      C2352   1.402       .  A
C2347      H2354   1.083       .  S
C2348      C2349   1.414       .  A
C2349      C2350   1.405       .  A
C2349      F2356   1.357       .  S
C2350      C2351   1.403       .  A
C2350      H2355   1.083       .  S
C2351      C2352   1.404       .  A
C2352      F2353   1.357       .  S
C2357      C2358   1.406       .  A
C2357      C2362   1.406       .  A
C2357      H2364   1.083       .  S
C2358      C2359   1.415   1_655  A
C2359      C2360   1.398       .  A
C2359      F2366   1.358       .  S
C2360      C2361   1.398       .  A
C2360      H2365   1.083       .  S
C2361      C2362   1.408   1_455  A
C2362      F2363   1.357       .  S
C2367      C2368   1.402       .  A
C2367      C2372   1.404       .  A
C2367      H2374   1.083       .  S
C2368      C2369   1.405   1_455  A
C2369      C2370   1.402       .  A
C2369      F2376   1.357       .  S
C2370      C2371   1.411   1_655  A
C2370      H2375   1.083       .  S
C2371      C2372   1.415       .  A
C2372      F2373   1.357       .  S
C2377      C2378   1.398       .  A
C2377      C2382   1.385       .  A
C2377      H2384   1.084       .  S
C2378      C2379   1.405       .  A
C2379      C2380   1.400       .  A
C2379      F2386   1.357       .  S
C2380      C2381   1.402       .  A
C2380      H2385   1.083       .  S
C2381      C2382   1.405       .  A
C2382      F2383   1.357       .  S
C2387      C2388   1.400       .  A
C2387      C2392   1.393       .  A
C2387      H2394   1.084       .  S
C2388      C2389   1.402       .  A
C2389      C2390   1.383       .  A
C2389      F2396   1.358       .  S
C2390      C2391   1.397       .  A
C2390      H2395   1.084       .  S
C2391      C2392   1.404       .  A
C2392      F2393   1.356       .  S
C2397      C2398   1.411       .  A
C2397      C2402   1.406       .  A
C2397      H2404   1.083       .  S
C2398      C2399   1.413       .  A
C2399      C2400   1.404       .  A
C2399      F2406   1.357       .  S
C2400      C2401   1.403       .  A
C2400      H2405   1.083       .  S
C2401      C2402   1.405       .  A
C2402      F2403   1.357       .  S
C2407      C2408   1.410       .  A
C2407      C2412   1.405       .  A
C2407      H2414   1.083       .  S
C2408      C2409   1.415       .  A
C2409      C2410   1.398       .  A
C2409      F2416   1.357       .  S
C2410      C2411   1.400       .  A
C2410      H2415   1.083       .  S
C2411      C2412   1.405       .  A
C2412      F2413   1.357       .  S
C2417      C2418   1.410       .  A
C2417      C2422   1.407       .  A
C2417      H2424   1.083       .  S
C2418      C2419   1.418   1_556  A
C2419      C2420   1.403       .  A
C2419      F2426   1.357       .  S
C2420      C2421   1.400   1_554  A
C2420      H2425   1.082       .  S
C2421      C2422   1.408       .  A
C2422      F2423   1.357       .  S
C2427      C2428   1.409   1_554  A
C2427      C2432   1.404       .  A
C2427      H2434   1.083       .  S
C2428      C2429   1.410       .  A
C2429      C2430   1.404       .  A
C2429      F2436   1.357       .  S
C2430      C2431   1.405       .  A
C2430      H2435   1.083       .  S
C2431      C2432   1.404   1_556  A
C2432      F2433   1.357       .  S
C2437      C2438   1.413       .  A
C2437      C2442   1.393       .  A
C2437      H2444   1.084       .  S
C2438      C2439   1.397       .  A
C2439      C2440   1.394       .  A
C2439      F2446   1.357       .  S
C2440      C2441   1.414       .  A
C2440      H2445   1.083       .  S
C2441      C2442   1.398       .  A
C2442      F2443   1.357       .  S
C2447      C2448   1.411       .  A
C2447      C2452   1.375   1_556  A
C2447      H2454   1.081   1_556  S
C2448      C2449   1.406       .  A
C2449      C2450   1.403       .  A
C2449      F2456   1.357       .  S
C2450      C2451   1.408       .  A
C2450      H2455   1.082       .  S
C2451      C2452   1.392   1_556  A
C2452      F2453   1.358       .  S
C2457      C2458   1.396       .  A
C2457      C2462   1.391       .  A
C2457      H2464   1.083       .  S
C2458      C2459   1.411   1_556  A
C2459      C2460   1.391       .  A
C2459      F2466   1.358       .  S
C2460      C2461   1.398   1_554  A
C2460      H2465   1.083       .  S
C2461      C2462   1.415       .  A
C2462      F2463   1.358       .  S
C2467      C2468   1.412       .  A
C2467      C2472   1.412       .  A
C2467      H2474   1.083       .  S
C2468      C2469   1.418       .  A
C2469      C2470   1.404       .  A
C2469      F2476   1.357       .  S
C2470      C2471   1.402       .  A
C2470      H2475   1.083       .  S
C2471      C2472   1.408       .  A
C2472      F2473   1.357       .  S
C2477      C2478   1.401   1_455  A
C2477      C2482   1.401       .  A
C2477      H2484   1.083       .  S
C2478      C2479   1.408       .  A
C2479      C2480   1.409       .  A
C2479      F2486   1.356       .  S
C2480      C2481   1.409       .  A
C2480      H2485   1.083       .  S
C2481      C2482   1.414   1_655  A
C2482      F2483   1.357       .  S
C2487      C2488   1.411       .  A
C2487      C2492   1.404       .  A
C2487      H2494   1.083   1_455  S
C2488      C2489   1.416       .  A
C2489      C2490   1.404       .  A
C2489      F2496   1.357       .  S
C2490      C2491   1.402       .  A
C2490      H2495   1.083       .  S
C2491      C2492   1.406       .  A
C2492      F2493   1.357   1_455  S
C2497      C2498   1.409       .  A
C2497      C2502   1.411       .  A
C2497      H2504   1.083       .  S
C2498      C2499   1.412       .  A
C2499      C2500   1.403       .  A
C2499      F2506   1.357       .  S
C2500      C2501   1.406       .  A
C2500      H2505   1.083       .  S
C2501      C2502   1.409       .  A
C2502      F2503   1.356       .  S
C2507      C2508   1.410       .  A
C2507      C2512   1.390       .  A
C2507      H2514   1.084       .  S
C2508      C2509   1.399       .  A
C2509      C2510   1.387       .  A
C2509      F2516   1.358       .  S
C2510      C2511   1.408       .  A
C2510      H2515   1.083       .  S
C2511      C2512   1.399       .  A
C2512      F2513   1.357       .  S
C2517      C2518   1.401       .  A
C2517      C2522   1.393       .  A
C2517      H2524   1.084       .  S
C2518      C2519   1.400   1_655  A
C2519      C2520   1.384       .  A
C2519      F2526   1.358       .  S
C2520      C2521   1.400   1_455  A
C2520      H2525   1.084       .  S
C2521      C2522   1.403       .  A
C2522      F2523   1.358       .  S
C2527      C2528   1.403       .  A
C2527      C2532   1.401       .  A
C2527      H2534   1.083       .  S
C2528      C2529   1.403       .  A
C2529      C2530   1.383       .  A
C2529      F2536   1.357       .  S
C2530      C2531   1.398       .  A
C2530      H2535   1.083       .  S
C2531      C2532   1.405       .  A
C2532      F2533   1.358       .  S
C2537      C2538   1.411       .  A
C2537      C2542   1.413       .  A
C2537      H2544   1.083       .  S
C2538      C2539   1.420   1_556  A
C2539      C2540   1.401       .  A
C2539      F2546   1.357       .  S
C2540      C2541   1.398   1_554  A
C2540      H2545   1.083       .  S
C2541      C2542   1.410       .  A
C2542      F2543   1.357       .  S
C2547      C2548   1.412       .  A
C2547      C2552   1.407       .  A
C2547      H2554   1.083       .  S
C2548      C2549   1.414   1_556  A
C2549      C2550   1.410       .  A
C2549      F2556   1.357       .  S
C2550      C2551   1.406   1_554  A
C2550      H2555   1.083       .  S
C2551      C2552   1.406       .  A
C2552      F2553   1.357       .  S
C2557      C2558   1.413       .  A
C2557      C2562   1.404       .  A
C2557      H2564   1.083       .  S
C2558      C2559   1.414       .  A
C2559      C2560   1.410       .  A
C2559      F2566   1.357       .  S
C2560      C2561   1.406       .  A
C2560      H2565   1.083       .  S
C2561      C2562   1.405       .  A
C2562      F2563   1.357       .  S
C2567      C2568   1.410       .  A
C2567      C2572   1.406       .  A
C2567      H2574   1.083       .  S
C2568      C2569   1.414       .  A
C2569      C2570   1.408       .  A
C2569      F2576   1.357       .  S
C2570      C2571   1.405       .  A
C2570      H2575   1.083       .  S
C2571      C2572   1.406       .  A
C2572      F2573   1.357       .  S
C2577      C2578   1.403       .  A
C2577      C2582   1.397       .  A
C2577      H2584   1.082       .  S
C2578      C2579   1.391       .  A
C2579      C2580   1.376       .  A
C2579      F2586   1.360       .  S
C2580      C2581   1.410       .  A
C2580      H2585   1.084       .  S
C2581      C2582   1.404       .  A
C2582      F2583   1.356       .  S
C2587      C2588   1.403       .  A
C2587      C2592   1.394       .  A
C2587      H2594   1.081       .  S
C2588      C2589   1.395       .  A
C2589      C2590   1.380       .  A
C2589      F2596   1.358       .  S
C2590      C2591   1.409       .  A
C2590      H2595   1.083       .  S
C2591      C2592   1.405       .  A
C2592      F2593   1.357       .  S
C2597      C2598   1.410       .  A
C2597      C2602   1.393       .  A
C2597      H2604   1.083       .  S
C2598      C2599   1.402   1_556  A
C2599      C2600   1.392       .  A
C2599      F2606   1.357       .  S
C2600      C2601   1.407   1_554  A
C2600      H2605   1.083       .  S
C2601      C2602   1.401       .  A
C2602      F2603   1.358       .  S
C2607      C2608   1.395       .  A
C2607      C2612   1.387       .  A
C2607      H2614   1.084       .  S
C2608      C2609   1.406   1_556  A
C2609      C2610   1.391       .  A
C2609      F2616   1.358       .  S
C2610      C2611   1.401   1_554  A
C2610      H2615   1.083       .  S
C2611      C2612   1.412       .  A
C2612      F2613   1.358       .  S
C2617      C2618   1.411       .  A
C2617      C2622   1.402       .  A
C2617      H2624   1.083       .  S
C2618      C2619   1.414       .  A
C2619      C2620   1.405       .  A
C2619      F2626   1.357       .  S
C2620      C2621   1.404       .  A
C2620      H2625   1.083       .  S
C2621      C2622   1.403       .  A
C2622      F2623   1.356       .  S
C2627      C2628   1.401       .  A
C2627      C2632   1.403       .  A
C2627      H2634   1.082       .  S
C2628      C2629   1.407       .  A
C2629      C2630   1.405       .  A
C2629      F2636   1.357       .  S
C2630      C2631   1.408       .  A
C2630      H2635   1.083       .  S
C2631      C2632   1.415       .  A
C2632      F2633   1.357       .  S
C2637      C2638   1.411       .  A
C2637      C2642   1.411       .  A
C2637      H2644   1.083       .  S
C2638      C2639   1.415       .  A
C2639      C2640   1.400       .  A
C2639      F2646   1.357       .  S
C2640      C2641   1.400       .  A
C2640      H2645   1.082       .  S
C2641      C2642   1.407       .  A
C2642      F2643   1.357       .  S
C2647      C2648   1.408       .  A
C2647      C2652   1.404       .  A
C2647      H2654   1.083       .  S
C2648      C2649   1.413       .  A
C2649      C2650   1.404       .  A
C2649      F2656   1.357       .  S
C2650      C2651   1.402       .  A
C2650      H2655   1.083       .  S
C2651      C2652   1.406       .  A
C2652      F2653   1.357       .  S
C2657      C2658   1.408       .  A
C2657      C2662   1.413       .  A
C2657      H2664   1.083       .  S
C2658      C2659   1.402       .  A
C2659      C2660   1.401       .  A
C2659      F2666   1.357       .  S
C2660      C2661   1.413       .  A
C2660      H2665   1.083       .  S
C2661      C2662   1.413       .  A
C2662      F2663   1.357       .  S
C2667      C2668   1.411       .  A
C2667      C2672   1.409       .  A
C2667      H2674   1.083       .  S
C2668      C2669   1.415       .  A
C2669      C2670   1.406       .  A
C2669      F2676   1.357       .  S
C2670      C2671   1.404       .  A
C2670      H2675   1.083       .  S
C2671      C2672   1.407       .  A
C2672      F2673   1.356       .  S
C2677      C2678   1.410       .  A
C2677      C2682   1.407       .  A
C2677      H2684   1.083       .  S
C2678      C2679   1.414       .  A
C2679      C2680   1.407       .  A
C2679      F2686   1.357       .  S
C2680      C2681   1.404       .  A
C2680      H2685   1.082       .  S
C2681      C2682   1.406       .  A
C2682      F2683   1.357       .  S
C2687      C2688   1.412       .  A
C2687      C2692   1.406       .  A
C2687      H2694   1.083       .  S
C2688      C2689   1.413       .  A
C2689      C2690   1.410       .  A
C2689      F2696   1.357       .  S
C2690      C2691   1.406       .  A
C2690      H2695   1.082       .  S
C2691      C2692   1.406       .  A
C2692      F2693   1.357       .  S
C2697      C2698   1.402       .  A
C2697      C2702   1.394       .  A
C2697      H2704   1.084       .  S
C2698      C2699   1.403       .  A
C2699      C2700   1.385       .  A
C2699      F2706   1.358       .  S
C2700      C2701   1.399       .  A
C2700      H2705   1.084       .  S
C2701      C2702   1.404       .  A
C2702      F2703   1.358       .  S
C2707      C2708   1.410       .  A
C2707      C2712   1.409       .  A
C2707      H2714   1.083       .  S
C2708      C2709   1.416       .  A
C2709      C2710   1.402       .  A
C2709      F2716   1.357       .  S
C2710      C2711   1.403       .  A
C2710      H2715   1.083       .  S
C2711      C2712   1.407       .  A
C2712      F2713   1.356       .  S
C2717      C2718   1.408       .  A
C2717      C2722   1.405       .  A
C2717      H2724   1.083       .  S
C2718      C2719   1.413       .  A
C2719      C2720   1.408       .  A
C2719      F2726   1.357       .  S
C2720      C2721   1.405       .  A
C2720      H2725   1.081       .  S
C2721      C2722   1.411       .  A
C2722      F2723   1.357       .  S
C2727      C2728   1.408       .  A
C2727      C2732   1.407       .  A
C2727      H2734   1.083       .  S
C2728      C2729   1.413       .  A
C2729      C2730   1.405       .  A
C2729      F2736   1.357       .  S
C2730      C2731   1.405       .  A
C2730      H2735   1.083       .  S
C2731      C2732   1.410       .  A
C2732      F2733   1.355       .  S
C2737      C2738   1.402       .  A
C2737      C2742   1.403       .  A
C2737      H2744   1.083       .  S
C2738      C2739   1.409       .  A
C2739      C2740   1.410       .  A
C2739      F2746   1.357       .  S
C2740      C2741   1.408       .  A
C2740      H2745   1.083       .  S
C2741      C2742   1.412       .  A
C2742      F2743   1.358       .  S
C2747      C2748   1.397       .  A
C2747      C2752   1.382       .  A
C2747      H2754   1.084       .  S
C2748      C2749   1.397       .  A
C2749      C2750   1.393       .  A
C2749      F2756   1.348       .  S
C2750      C2751   1.396       .  A
C2750      H2755   1.078       .  S
C2751      C2752   1.401       .  A
C2752      F2753   1.359       .  S
C2757      C2758   1.413       .  A
C2757      C2762   1.402       .  A
C2757      H2764   1.083       .  S
C2758      C2759   1.413       .  A
C2759      C2760   1.410       .  A
C2759      F2766   1.357       .  S
C2760      C2761   1.407       .  A
C2760      H2765   1.082       .  S
C2761      C2762   1.403       .  A
C2762      F2763   1.357       .  S
C2767      C2768   1.409       .  A
C2767      C2772   1.403       .  A
C2767      H2774   1.083       .  S
C2768      C2769   1.414       .  A
C2769      C2770   1.407       .  A
C2769      F2776   1.357       .  S
C2770      C2771   1.404       .  A
C2770      H2775   1.083       .  S
C2771      C2772   1.407       .  A
C2772      F2773   1.357       .  S
C2777      C2778   1.410       .  A
C2777      C2782   1.407       .  A
C2777      H2784   1.083       .  S
C2778      C2779   1.415       .  A
C2779      C2780   1.406       .  A
C2779      F2786   1.357       .  S
C2780      C2781   1.403       .  A
C2780      H2785   1.083       .  S
C2781      C2782   1.407       .  A
C2782      F2783   1.357       .  S
C2787      C2788   1.401       .  A
C2787      C2792   1.404       .  A
C2787      H2794   1.083       .  S
C2788      C2789   1.408       .  A
C2789      C2790   1.409       .  A
C2789      F2796   1.357       .  S
C2790      C2791   1.411       .  A
C2790      H2795   1.083       .  S
C2791      C2792   1.418       .  A
C2792      F2793   1.357       .  S
C2797      C2798   1.402       .  A
C2797      C2802   1.394       .  A
C2797      H2804   1.083       .  S
C2798      C2799   1.395       .  A
C2799      C2800   1.379       .  A
C2799      F2806   1.359       .  S
C2800      C2801   1.402       .  A
C2800      H2805   1.083       .  S
C2801      C2802   1.397       .  A
C2802      F2803   1.348       .  S
C2807      C2808   1.401       .  A
C2807      C2812   1.385       .  A
C2807      H2814   1.083       .  S
C2808      C2809   1.405       .  A
C2809      C2810   1.396       .  A
C2809      F2816   1.357       .  S
C2810      C2811   1.402       .  A
C2810      H2815   1.084       .  S
C2811      C2812   1.402       .  A
C2812      F2813   1.358       .  S
C2817      C2818   1.403       .  A
C2817      C2822   1.395       .  A
C2817      H2824   1.083       .  S
C2818      C2819   1.401       .  A
C2819      C2820   1.384       .  A
C2819      F2826   1.357       .  S
C2820      C2821   1.398       .  A
C2820      H2825   1.083       .  S
C2821      C2822   1.403       .  A
C2822      F2823   1.358       .  S
C2827      C2828   1.404       .  A
C2827      C2832   1.403       .  A
C2827      H2834   1.083       .  S
C2828      C2829   1.406       .  A
C2829      C2830   1.408       .  A
C2829      F2836   1.357       .  S
C2830      C2831   1.411       .  A
C2830      H2835   1.083       .  S
C2831      C2832   1.415       .  A
C2832      F2833   1.357       .  S
C2837      C2838   1.412       .  A
C2837      C2842   1.405       .  A
C2837      H2844   1.083       .  S
C2838      C2839   1.412       .  A
C2839      C2840   1.406       .  A
C2839      F2846   1.357       .  S
C2840      C2841   1.403       .  A
C2840      H2845   1.083       .  S
C2841      C2842   1.404       .  A
C2842      F2843   1.357       .  S
C2847      C2848   1.411       .  A
C2847      C2852   1.410       .  A
C2847      H2854   1.083       .  S
C2848      C2849   1.418       .  A
C2849      C2850   1.403       .  A
C2849      F2856   1.357       .  S
C2850      C2851   1.400       .  A
C2850      H2855   1.083       .  S
C2851      C2852   1.409       .  A
C2852      F2853   1.357       .  S
C2857      C2858   1.405       .  A
C2857      C2862   1.409       .  A
C2857      H2864   1.083       .  S
C2858      C2859   1.406       .  A
C2859      C2860   1.404       .  A
C2859      F2866   1.357       .  S
C2860      C2861   1.411       .  A
C2860      H2865   1.083       .  S
C2861      C2862   1.415       .  A
C2862      F2863   1.357       .  S
C2867      C2868   1.398       .  A
C2867      C2872   1.396       .  A
C2867      H2874   1.083       .  S
C2868      C2869   1.401       .  A
C2869      C2870   1.378       .  A
C2869      F2876   1.357       .  S
C2870      C2871   1.396       .  A
C2870      H2875   1.085       .  S
C2871      C2872   1.400       .  A
C2872      F2873   1.349       .  S
C2877      C2878   1.404       .  A
C2877      C2882   1.396       .  A
C2877      H2884   1.084       .  S
C2878      C2879   1.400       .  A
C2879      C2880   1.387       .  A
C2879      F2886   1.358       .  S
C2880      C2881   1.403       .  A
C2880      H2885   1.083       .  S
C2881      C2882   1.403       .  A
C2882      F2883   1.358       .  S
C2887      C2888   1.400       .  A
C2887      C2892   1.388       .  A
C2887      H2894   1.084       .  S
C2888      C2889   1.401       .  A
C2889      C2890   1.392       .  A
C2889      F2896   1.355       .  S
C2890      C2891   1.400       .  A
C2890      H2895   1.084       .  S
C2891      C2892   1.401       .  A
C2892      F2893   1.358       .  S
C2897      C2898   1.406       .  A
C2897      C2902   1.407       .  A
C2897      H2904   1.083       .  S
C2898      C2899   1.404       .  A
C2899      C2900   1.405       .  A
C2899      F2906   1.357       .  S
C2900      C2901   1.413       .  A
C2900      H2905   1.083       .  S
C2901      C2902   1.413       .  A
C2902      F2903   1.357       .  S
C2907      C2908   1.412       .  A
C2907      C2912   1.403       .  A
C2907      H2914   1.083       .  S
C2908      C2909   1.413       .  A
C2909      C2910   1.408       .  A
C2909      F2916   1.357       .  S
C2910      C2911   1.406       .  A
C2910      H2915   1.083       .  S
C2911      C2912   1.403       .  A
C2912      F2913   1.357       .  S
C2917      C2918   1.403       .  A
C2917      C2922   1.401       .  A
C2917      H2924   1.083       .  S
C2918      C2919   1.407       .  A
C2919      C2920   1.406       .  A
C2919      F2926   1.356       .  S
C2920      C2921   1.412       .  A
C2920      H2925   1.083       .  S
C2921      C2922   1.413       .  A
C2922      F2923   1.357       .  S
C2927      C2928   1.411       .  A
C2927      C2932   1.407       .  A
C2927      H2934   1.083       .  S
C2928      C2929   1.414       .  A
C2929      C2930   1.406       .  A
C2929      F2936   1.357       .  S
C2930      C2931   1.405       .  A
C2930      H2935   1.080       .  S
C2931      C2932   1.407       .  A
C2932      F2933   1.357       .  S
C2937      C2938   1.405       .  A
C2937      C2942   1.392       .  A
C2937      H2944   1.084       .  S
C2938      C2939   1.398       .  A
C2939      C2940   1.390       .  A
C2939      F2946   1.358       .  S
C2940      C2941   1.407       .  A
C2940      H2945   1.083       .  S
C2941      C2942   1.403       .  A
C2942      F2943   1.356       .  S
C2947      C2948   1.397       .  A
C2947      C2952   1.395       .  A
C2947      H2954   1.083       .  S
C2948      C2949   1.396       .  A
C2949      C2950   1.385       .  A
C2949      F2956   1.341       .  S
C2950      C2951   1.399       .  A
C2950      H2955   1.084       .  S
C2951      C2952   1.413       .  A
C2952      F2953   1.356       .  S
C2957      C2958   1.409       .  A
C2957      C2962   1.385       .  A
C2957      H2964   1.083       .  S
C2958      C2959   1.404       .  A
C2959      C2960   1.392       .  A
C2959      F2966   1.357       .  S
C2960      C2961   1.404       .  A
C2960      H2965   1.084       .  S
C2961      C2962   1.398       .  A
C2962      F2963   1.359       .  S
C2967      C2968   1.402       .  A
C2967      C2972   1.390       .  A
C2967      H2974   1.083       .  S
C2968      C2969   1.412       .  A
C2969      C2970   1.383       .  A
C2969      F2976   1.357       .  S
C2970      C2971   1.392       .  A
C2970      H2975   1.085       .  S
C2971      C2972   1.402       .  A
C2972      F2973   1.358       .  S
