geometry optimzed in LAMMPS
_audit_creation_date              2020-11-30 
_audit_creation_method            'lammps2cif' 
_symmetry_space_group_name_H-M    'P1' 
_symmetry_Int_Tables_number       1 
_symmetry_cell_setting            triclinic 
loop_ 
_symmetry_equiv_pos_as_xyz 
  x,y,z 
_cell_length_a                    41.88065311500338 
_cell_length_b                    42.029066835411356 
_cell_length_c                    42.06716916503392 
_cell_angle_alpha                 86.83702206700023 
_cell_angle_beta                  90.16191128632626 
_cell_angle_gamma                 87.23605295110852 
loop_ 
_atom_site_label 
_atom_site_type_symbol 
_atom_site_fract_x 
_atom_site_fract_y 
_atom_site_fract_z 
_atom_site_charge 
N1          N  0.45680785  0.34376702  0.53143709    -0.07100
N2          N  0.45915813  0.34462970  0.56250341    -0.59220
N3          N  0.43491929  0.35524427  0.45505427    -0.06780
N4          N  0.41966886  0.36556130  0.42903097    -0.61340
N5          N  0.41897976  0.33326448  0.47007535    -0.06370
N6          N  0.39236034  0.32841441  0.45468280    -0.59190
N7          N  0.47428913  0.36496702  0.51694049    -0.06050
N8          N  0.48961904  0.38057005  0.53807273    -0.61700
C9          C  0.47965019  0.36757437  0.56621716     0.95080
C10         C  0.39254619  0.34933674  0.42901132     0.94860
N11         N  0.51165345  0.33534023  0.40608588    -0.07280
N12         N  0.50270913  0.32856847  0.37717520    -0.59790
N13         N  0.53337342  0.36441692  0.47584997    -0.05400
N14         N  0.54598479  0.38133074  0.49726268    -0.61050
N15         N  0.55418671  0.34303091  0.46592331    -0.07310
N16         N  0.58185445  0.34503519  0.48035068    -0.60060
N17         N  0.49350797  0.35889057  0.41622716    -0.05040
N18         N  0.47252846  0.36904515  0.39433452    -0.61130
Mn19       Mn  0.48400942  0.36257565  0.46616351     1.18440
C20         C  0.47803870  0.34965880  0.37052680     0.97160
C21         C  0.57603753  0.36883229  0.50002819     0.97830
N22         N  0.42540043  0.26545670  0.48615613    -0.07330
N23         N  0.39473574  0.26425034  0.48275011    -0.63640
N24         N  0.48776391  0.25122610  0.53792830    -0.06130
N25         N  0.50129050  0.24199346  0.56616175    -0.64310
N26         N  0.46481248  0.27290462  0.54304827    -0.06840
N27         N  0.46155680  0.27805175  0.57320311    -0.63900
N28         N  0.44140954  0.23967840  0.47790333    -0.05730
N29         N  0.41974302  0.21931595  0.46866630    -0.64590
Mn30       Mn  0.44118643  0.30395588  0.50779768     1.10660
C31         C  0.39067245  0.23604120  0.47176138     0.98380
C32         C  0.48410367  0.25927970  0.58789628     0.98460
N33         N  0.56396347  0.27252114  0.47295283    -0.06850
N34         N  0.59437351  0.27584753  0.47775401    -0.62220
N35         N  0.50404589  0.24223015  0.42889229    -0.06160
N36         N  0.49010236  0.22844101  0.40465318    -0.58950
N37         N  0.52274709  0.26396502  0.41646727    -0.07470
N38         N  0.52315296  0.26460131  0.38540087    -0.61790
N39         N  0.55263561  0.24882708  0.49055824    -0.06460
N40         N  0.57720714  0.23524381  0.50810690    -0.58970
Mn41       Mn  0.53886146  0.30369897  0.43987664     1.20190
Mn42       Mn  0.49709876  0.24198165  0.48433030     1.10090
Cl43       Cl  0.49081884  0.30218189  0.47496272    -0.86940
C44         C  0.60317668  0.25306078  0.49959641     0.95390
C45         C  0.50287408  0.24293804  0.37763335     0.95190
N46         N  0.45554183  0.45941830  0.30913378    -0.07100
N47         N  0.43048409  0.44122599  0.31013837    -0.59220
N48         N  0.52846992  0.49073854  0.31753804    -0.06780
N49         N  0.55708765  0.49530976  0.32835699    -0.61340
N50         N  0.50630237  0.50653559  0.33297895    -0.06370
N51         N  0.51968061  0.52288946  0.35497807    -0.59190
N52         N  0.47971265  0.44469491  0.29567360    -0.06050
N53         N  0.47180160  0.41678111  0.28698019    -0.61700
C54         C  0.44114882  0.41465715  0.29566227     0.95080
C55         C  0.55122599  0.51529954  0.35144985     0.94860
N56         N  0.55392421  0.50787597  0.22386283    -0.07280
N57         N  0.58276573  0.51514679  0.21282544    -0.59790
N58         N  0.51039608  0.44508114  0.23339682    -0.05400
N59         N  0.51042999  0.41402275  0.23384871    -0.61050
N60         N  0.50080974  0.45879263  0.20605597    -0.07310
N61         N  0.49354373  0.43554725  0.18685080    -0.60060
N62         N  0.55772780  0.49151936  0.25132560    -0.05040
N63         N  0.58796476  0.48702856  0.25939684    -0.61130
Mn64       Mn  0.51945285  0.46817411  0.27513979     1.18440
C65         C  0.60365484  0.50191344  0.23571052     0.97160
C66         C  0.49972133  0.40761484  0.20531489     0.97830
N67         N  0.45782865  0.56202086  0.31490393    -0.07330
N68         N  0.46796081  0.57856360  0.33808199    -0.63640
N69         N  0.40434540  0.53789953  0.26712972    -0.06130
N70         N  0.37394233  0.54769982  0.26749263    -0.64310
N71         N  0.41093904  0.51695371  0.29089307    -0.06840
N72         N  0.38510620  0.51060562  0.30647577    -0.63900
N73         N  0.45216041  0.58066435  0.28934900    -0.05730
N74         N  0.45814416  0.61034863  0.29439307    -0.64590
Mn75       Mn  0.45721206  0.51076511  0.31364548     1.10660
C76         C  0.46768025  0.60857530  0.32488678     0.98380
C77         C  0.36223734  0.52947902  0.29159103     0.98460
N78         N  0.44636009  0.51835848  0.19437474    -0.06850
N79         N  0.42252463  0.49783645  0.19631636    -0.62220
N80         N  0.48013219  0.58436246  0.22467148    -0.06160
N81         N  0.48360999  0.61391711  0.23073945    -0.58950
N82         N  0.50453957  0.57110119  0.21003773    -0.07470
N83         N  0.52615529  0.59384949  0.20595493    -0.61790
N84         N  0.43326234  0.54688969  0.19750103    -0.06460
N85         N  0.40227996  0.54725230  0.19454161    -0.58970
Mn86       Mn  0.50186214  0.51453121  0.20492067     1.20190
Mn87       Mn  0.44244334  0.56230042  0.24416571     1.10090
Cl88       Cl  0.48078775  0.51409837  0.25936934    -0.86940
C89         C  0.39461073  0.51693004  0.19582263     0.95390
C90         C  0.51198824  0.62047497  0.21945192     0.95190
N91         N  0.46506063  0.69972490  0.51430361    -0.07100
N92         N  0.43729487  0.70026944  0.49983987    -0.59220
N93         N  0.53272010  0.68895394  0.55982861    -0.06780
N94         N  0.55592912  0.68421924  0.58136264    -0.61340
N95         N  0.51095126  0.70939378  0.56999273    -0.06370
N96         N  0.51859860  0.71854970  0.59811961    -0.59190
N97         N  0.48488233  0.67835245  0.50257879    -0.06050
N98         N  0.47079973  0.66418018  0.47942536    -0.61700
C99         C  0.44125112  0.67852683  0.47788242     0.95080
C100        C  0.54684508  0.70349665  0.60488042     0.94860
N101        N  0.59754957  0.71256129  0.49271338    -0.07280
N102        N  0.62541552  0.72004980  0.50219656    -0.59790
N103        N  0.54019114  0.68066030  0.45641496    -0.05400
N104        N  0.52754503  0.66119639  0.43698813    -0.61050
N105        N  0.55232764  0.70444914  0.43986219    -0.07310
N106        N  0.54880229  0.70203504  0.40921168    -0.60060
N107        N  0.58611080  0.69056395  0.51207447    -0.05040
N108        N  0.60649724  0.68286450  0.53566329    -0.61130
Mn109      Mn  0.53611196  0.68216673  0.50837191     1.18440
C110        C  0.63083249  0.70211517  0.52892320     0.97160
C111        C  0.53352896  0.67510350  0.40798382     0.97830
N112        N  0.49589938  0.77933650  0.56239620    -0.07330
N113        N  0.49442171  0.77932699  0.59333379    -0.63640
N114        N  0.46313272  0.79355030  0.48935989    -0.06130
N115        N  0.43877084  0.80313044  0.46935861    -0.64310
N116        N  0.45266841  0.77073771  0.50865223    -0.06840
N117        N  0.42279009  0.76520530  0.50360699    -0.63900
N118        N  0.51423103  0.80130185  0.55017312    -0.05730
N119        N  0.52701815  0.81594592  0.57459206    -0.64590
Mn120      Mn  0.48066861  0.73947240  0.53907203     1.10660
C121        C  0.51390761  0.80152168  0.60161086     0.98380
C122        C  0.41346500  0.78482069  0.47913368     0.98460
N123        N  0.54370927  0.77527380  0.42994627    -0.06850
N124        N  0.54218172  0.77100224  0.39950590    -0.62220
N125        N  0.57605412  0.80268907  0.49912392    -0.06160
N126        N  0.59880123  0.81504067  0.51717509    -0.58950
N127        N  0.59107618  0.78285586  0.48058712    -0.07470
N128        N  0.62211844  0.78231287  0.48381369    -0.61790
N129        N  0.52217364  0.79649755  0.43920167    -0.06460
N130        N  0.50437921  0.80650310  0.41357134    -0.58970
Mn131      Mn  0.57103481  0.74383438  0.46043232     1.20190
Mn132      Mn  0.51878633  0.80185277  0.49440394     1.10090
Cl133      Cl  0.52652205  0.74226318  0.50050174    -0.86940
C134        C  0.51781509  0.79014654  0.38891573     0.95390
C135        C  0.62778774  0.80160108  0.50682548     0.95190
N136        N  0.69652593  0.56420773  0.44676456    -0.07100
N137        N  0.68390448  0.56138361  0.41829596    -0.59220
N138        N  0.70180884  0.60400246  0.51164199    -0.06780
N139        N  0.70031975  0.62394753  0.53417514    -0.61340
N140        N  0.72281390  0.61256092  0.49019297    -0.06370
N141        N  0.73549977  0.63917713  0.49767720    -0.59190
N142        N  0.67556588  0.55733333  0.46895775    -0.06050
N143        N  0.64865905  0.54943227  0.45659525    -0.61700
C144        C  0.65418948  0.55180757  0.42522259     0.95080
C145        C  0.72166850  0.64543243  0.52554230     0.94860
N146        N  0.71994237  0.53727705  0.58034737    -0.07280
N147        N  0.72859824  0.54459373  0.60873834    -0.59790
N148        N  0.67206515  0.50897965  0.52572551    -0.05400
N149        N  0.64639641  0.49472275  0.51698943    -0.61050
N150        N  0.69301256  0.48814588  0.53872016    -0.07310
N151        N  0.68282220  0.45938223  0.53941295    -0.60060
N152        N  0.69868481  0.55849356  0.56849018    -0.05040
N153        N  0.69184741  0.58020076  0.58930458    -0.61130
Mn154      Mn  0.68509287  0.55768816  0.51872537     1.18440
C155        C  0.71091921  0.57119621  0.61459172     0.97160
C156        C  0.65410813  0.46389865  0.52592481     0.97830
N157        N  0.79077743  0.59263614  0.47420286    -0.07330
N158        N  0.79377621  0.62351305  0.47450995    -0.63640
N159        N  0.78643603  0.51895503  0.44856691    -0.06130
N160        N  0.78946298  0.49546575  0.42805373    -0.64310
N161        N  0.76783070  0.54190831  0.43481585    -0.06840
N162        N  0.75921548  0.53573195  0.40597984    -0.63900
N163        N  0.80478655  0.57743778  0.49898622    -0.05730
N164        N  0.81465160  0.59952873  0.51846642    -0.64590
Mn165      Mn  0.74450502  0.57804929  0.46017981     1.10660
C166        C  0.80776171  0.62860182  0.50225516     0.98380
C167        C  0.77226094  0.50674960  0.40130694     0.98460
N168        N  0.75901859  0.46226283  0.52781888    -0.06850
N169        N  0.75134494  0.43245428  0.52968157    -0.62220
N170        N  0.80028376  0.52500939  0.56043741    -0.06160
N171        N  0.80654854  0.54426266  0.58431316    -0.58950
N172        N  0.78500985  0.50131560  0.57308664    -0.07470
N173        N  0.78452516  0.50096369  0.60398248    -0.61790
N174        N  0.78329917  0.46769637  0.50898730    -0.06460
N175        N  0.79220581  0.43984742  0.49652794    -0.58970
Mn176      Mn  0.73869439  0.49743492  0.55480476     1.20190
Mn177      Mn  0.79722385  0.52215212  0.50396032     1.10090
Cl178      Cl  0.74144114  0.53823666  0.50862044    -0.86940
C179        C  0.77175211  0.41813567  0.51021796     0.95390
C180        C  0.79662232  0.52795403  0.61207096     0.95190
N181        N  0.53678593  0.46758067  0.69118721    -0.07100
N182        N  0.53827775  0.43660126  0.68812785    -0.59220
N183        N  0.56479922  0.53962853  0.67303295    -0.06780
N184        N  0.58409092  0.56130686  0.66113380    -0.61340
N185        N  0.57809502  0.52460195  0.69815623    -0.06370
N186        N  0.60524303  0.53648207  0.70482965    -0.59190
N187        N  0.52129714  0.48271027  0.66738627    -0.06050
N188        N  0.51147354  0.46227504  0.64737774    -0.61700
C189        C  0.52227100  0.43387955  0.66092919     0.95080
C190        C  0.60917210  0.55888632  0.68177849     0.94860
N191        N  0.48717125  0.59895546  0.68751806    -0.07280
N192        N  0.49492723  0.62806365  0.69263236    -0.59790
N193        N  0.46187197  0.52857081  0.66496798    -0.05400
N194        N  0.44617815  0.50527870  0.65316163    -0.61050
N195        N  0.44364906  0.54375865  0.68513149    -0.07310
N196        N  0.41554292  0.53167634  0.68711061    -0.60060
N197        N  0.50694713  0.58568084  0.66744574    -0.05040
N198        N  0.52901822  0.60561441  0.65900310    -0.61130
Mn199      Mn  0.51357247  0.53427556  0.66574119     1.18440
C200        C  0.52122752  0.63155177  0.67526762     0.97160
C201        C  0.41729518  0.50774876  0.66748385     0.97830
N202        N  0.57768308  0.51185703  0.76772016    -0.07330
N203        N  0.60855335  0.51489116  0.76664713    -0.63640
N204        N  0.50945161  0.47238214  0.78014802    -0.06130
N205        N  0.49013655  0.44781111  0.78547140    -0.64310
N206        N  0.53305638  0.46195422  0.76248028    -0.06840
N207        N  0.53173527  0.43190045  0.75701774    -0.63900
N208        N  0.56271539  0.53286755  0.78481930    -0.05730
N209        N  0.58495319  0.55280473  0.79417624    -0.64590
Mn210      Mn  0.55633083  0.49127064  0.72980943     1.10660
C211        C  0.61379139  0.54055082  0.78244756     0.98380
C212        C  0.50517654  0.42230621  0.77092072     0.98460
N213        N  0.43670716  0.54390612  0.75588422    -0.06850
N214        N  0.40642040  0.53870707  0.75212572    -0.62220
N215        N  0.50132632  0.58494344  0.78050639    -0.06160
N216        N  0.51818437  0.60837369  0.79178616    -0.58950
N217        N  0.48114646  0.59801344  0.75894556    -0.07470
N218        N  0.48257199  0.62921029  0.75624524    -0.61790
N219        N  0.45024717  0.52534782  0.77872765    -0.06460
N220        N  0.42793928  0.50604535  0.79066563    -0.58970
Mn221      Mn  0.46155505  0.57165811  0.72174069     1.20190
Mn222      Mn  0.50585095  0.52882924  0.78433414     1.10090
Cl223      Cl  0.50909392  0.53146410  0.72575190    -0.86940
C224        C  0.40059296  0.51502213  0.77330724     0.95390
C225        C  0.50568817  0.63607149  0.77631814     0.95190
N226        N  0.35737978  0.46171471  0.51352210    -0.07100
N227        N  0.37819890  0.44201556  0.50047010    -0.59220
N228        N  0.33587147  0.48253867  0.44758837    -0.06780
N229        N  0.33256899  0.48155318  0.41704120    -0.61340
N230        N  0.35427618  0.50535761  0.45450377    -0.06370
N231        N  0.36262810  0.52171499  0.42822150    -0.59190
N232        N  0.33019667  0.44792425  0.51670042    -0.06050
N233        N  0.33454221  0.41732574  0.51364957    -0.61700
C234        C  0.36239185  0.41488129  0.49847172     0.95080
C235        C  0.34880627  0.50572353  0.40497684     0.94860
N236        N  0.24143005  0.50587350  0.44464009    -0.07280
N237        N  0.22930587  0.51758290  0.41668500    -0.59790
N238        N  0.26260427  0.44589349  0.50446217    -0.05400
N239        N  0.26360246  0.41482615  0.50674532    -0.61050
N240        N  0.23360693  0.45880676  0.50528133    -0.07310
N241        N  0.21350481  0.43458931  0.50686812    -0.60060
N242        N  0.26465068  0.48451425  0.43963353    -0.05040
N243        N  0.26831270  0.48092246  0.40893534    -0.61130
Mn244      Mn  0.29855537  0.46520761  0.47750975     1.18440
C245        C  0.24673598  0.50162914  0.39442437     0.97160
C246        C  0.23346517  0.40714529  0.50826875     0.97830
N247        N  0.35196983  0.56305290  0.49433745    -0.07330
N248        N  0.36649629  0.57819556  0.47087013    -0.63640
N249        N  0.32616690  0.53306915  0.56659009    -0.06130
N250        N  0.31800830  0.51906940  0.59404312    -0.64310
N251        N  0.35086404  0.51726110  0.55472848    -0.06840
N252        N  0.35963420  0.49256151  0.57386020    -0.63900
N253        N  0.32909031  0.58113780  0.50594929    -0.05730
N254        N  0.32767952  0.60928966  0.49054311    -0.64590
Mn255      Mn  0.35547501  0.51302057  0.50439550     1.10660
C256        C  0.35090470  0.60695156  0.46849470     0.98380
C257        C  0.33859286  0.49347540  0.59782718     0.98460
N258        N  0.23313586  0.52134412  0.55129557    -0.06850
N259        N  0.22082475  0.50574793  0.57684957    -0.62220
N260        N  0.25802515  0.58471023  0.50509558    -0.06160
N261        N  0.26065529  0.61500616  0.49763694    -0.58950
N262        N  0.23745232  0.57123098  0.48695979    -0.07470
N263        N  0.22620055  0.59400460  0.46537187    -0.61790
N264        N  0.25356285  0.54135242  0.56158395    -0.06460
N265        N  0.25434071  0.54124202  0.59244430    -0.58970
Mn266      Mn  0.23304951  0.51504902  0.49674144     1.20190
Mn267      Mn  0.29185203  0.56115866  0.53570996     1.10090
Cl268      Cl  0.29406853  0.51430667  0.50294312    -0.86940
C269        C  0.23446568  0.51913033  0.60252069     0.95390
C270        C  0.24135846  0.62126563  0.47286398     0.95190
N271        N  0.83662699  0.54429066  0.96499375    -0.07100
N272        N  0.83889789  0.55656438  0.93576915    -0.59220
N273        N  0.85175170  0.50591192  0.03428854    -0.06780
N274        N  0.86567688  0.48943396  0.05818399    -0.61340
N275        N  0.83731450  0.48713574  0.01581907    -0.06370
N276        N  0.84038233  0.45733040  0.02719801    -0.59190
N277        N  0.84938504  0.56294657  0.98509625    -0.06050
N278        N  0.86084850  0.58822178  0.96985823    -0.61700
C279        C  0.85372942  0.58395969  0.93905834     0.95080
C280        C  0.85767861  0.45948669  0.05403534     0.94860
N281        N  0.79380273  0.55636436  0.09312487    -0.07280
N282        N  0.78273018  0.53709037  0.11556295    -0.59790
N283        N  0.82755374  0.60559914  0.03860331    -0.05400
N284        N  0.85022560  0.62485510  0.04458928    -0.61050
N285        N  0.80044835  0.61575734  0.05086301    -0.07310
N286        N  0.80468678  0.64175278  0.06648132    -0.60060
N287        N  0.82226917  0.54576387  0.08399735    -0.05040
N288        N  0.83045255  0.51901073  0.10040297    -0.61130
Mn289      Mn  0.83917674  0.55565395  0.03536128     1.18440
C290        C  0.80500362  0.51328036  0.11879415     0.97160
C291        C  0.83586148  0.64722633  0.06192125     0.97830
N292        N  0.77126432  0.47102884  0.99485479    -0.07330
N293        N  0.77684064  0.44001258  0.99463803    -0.66040
N294        N  0.74242947  0.53592643  0.95025802    -0.06130
N295        N  0.72877738  0.54721986  0.92270560    -0.64310
N296        N  0.77167788  0.52546963  0.94432408    -0.06840
N297        N  0.77862487  0.52900432  0.91407458    -0.63900
N298        N  0.74204766  0.47836211  0.00434483    -0.05730
N299        N  0.72708472  0.45128906  0.01084148    -0.64590
Mn300      Mn  0.80490580  0.50638768  0.97965305     1.10660
C301        C  0.74944488  0.42745436  0.00440725     0.98380
C302        C  0.75218927  0.54261901  0.90018209     0.98460
N303        N  0.73423149  0.60450791  0.02353446    -0.06850
N304        N  0.73988947  0.63395922  0.01489341    -0.62220
N305        N  0.71942360  0.52779299  0.05959018    -0.06160
N306        N  0.71655778  0.50381422  0.08213997    -0.58950
N307        N  0.72353124  0.55384306  0.07452222    -0.07470
N308        N  0.72006290  0.54922836  0.10540920    -0.61790
N309        N  0.72401793  0.58855350  0.99962153    -0.06460
N310        N  0.72287117  0.60866167  0.97355590    -0.58970
Mn311      Mn  0.76217891  0.58326828  0.06054753     1.20190
Mn312      Mn  0.72849402  0.53242003  0.00358473     1.10090
Cl313      Cl  0.78342893  0.54433657  0.01950987    -0.86940
C314        C  0.73310778  0.63692992  0.98394349     0.95390
C315        C  0.71681475  0.51794266  0.11128230     0.95190
N316        N  0.96250793  0.52418397  0.84329613    -0.07100
N317        N  0.95318358  0.54728910  0.86147541    -0.59220
N318        N  0.97472983  0.45525987  0.80614183    -0.06780
N319        N  0.97919621  0.42751201  0.79353184    -0.61340
N320        N  0.99665850  0.45879125  0.82781118    -0.06370
N321        N  0.01654038  0.43348597  0.82982958    -0.59190
N322        N  0.94132043  0.52086080  0.82090239    -0.06050
N323        N  0.91681948  0.54144397  0.82364312    -0.61700
C324        C  0.92475691  0.55791336  0.84889117     0.95080
C325        C  0.00594297  0.41484599  0.80749221     0.94860
N326        N  0.99059158  0.47898873  0.71733683    -0.07280
N327        N  0.00263663  0.45230922  0.70476571    -0.59790
N328        N  0.93703306  0.53483837  0.75076600    -0.05400
N329        N  0.90792352  0.54622016  0.75425755    -0.61050
N330        N  0.95098637  0.54698099  0.72527485    -0.07310
N331        N  0.92938175  0.56691039  0.70987723    -0.60060
N332        N  0.96652344  0.47131053  0.73581513    -0.05040
N333        N  0.96033120  0.44124471  0.73423272    -0.61130
Mn334      Mn  0.95395241  0.49550099  0.77866465     1.18440
C335        C  0.98297100  0.42872817  0.71571701     0.97160
C336        C  0.90277679  0.56637267  0.72920920     0.97830
N337        N  0.05946005  0.48903775  0.83072540    -0.07330
N338        N  0.07291443  0.46099177  0.83926421    -0.63640
N339        N  0.04336269  0.56820975  0.82532053    -0.06130
N340        N  0.05652719  0.59280118  0.83690433    -0.64310
N341        N  0.02726486  0.55263432  0.84723074    -0.06840
N342        N  0.02891258  0.56641441  0.87444414    -0.63900
N343        N  0.07710177  0.50416599  0.80987536    -0.05730
N344        N  0.10284441  0.48643311  0.80355263    -0.64590
Mn345      Mn  0.01103543  0.50566465  0.83898923     1.10660
C346        C  0.09998328  0.45928948  0.82195540     0.98380
C347        C  0.04707005  0.59154822  0.86738997     0.98460
N348        N  0.01793157  0.58246329  0.72950812    -0.06850
N349        N  0.00649622  0.61134584  0.71877141    -0.62220
N350        N  0.07547839  0.52521442  0.74314546    -0.06160
N351        N  0.10573738  0.51685730  0.74337028    -0.58950
N352        N  0.06021704  0.51639265  0.71813310    -0.07470
N353        N  0.08211221  0.50142751  0.69989452    -0.61790
N354        N  0.03783755  0.58590792  0.75328230    -0.06460
N355        N  0.04105944  0.61603742  0.75859438    -0.58970
Mn356      Mn  0.00509820  0.53124574  0.71928040     1.20190
Mn357      Mn  0.05839002  0.54664569  0.78282160     1.10090
Cl358      Cl  0.00705539  0.51999700  0.77955632    -0.86940
C359        C  0.02180374  0.63201133  0.73706717     0.95390
C360        C  0.11047263  0.50169616  0.71710659     0.95190
N361        N  0.26649041  0.51213489  0.93975876    -0.07100
N362        N  0.28192382  0.49425046  0.91847016    -0.59220
N363        N  0.24870454  0.58581982  0.96431189    -0.06780
N364        N  0.24955742  0.61697240  0.96229105    -0.61340
N365        N  0.26906416  0.57278490  0.98580304    -0.06370
N366        N  0.28337664  0.59635776  0.99974758    -0.59190
N367        N  0.24321972  0.52877705  0.92471117    -0.06050
N368        N  0.24161148  0.52274016  0.89482590    -0.61700
C369        C  0.26537843  0.50148379  0.89034330     0.95080
C370        C  0.27082113  0.62387915  0.98420678     0.94860
N371        N  0.15367844  0.58673247  0.98080577    -0.07280
N372        N  0.14588129  0.61025093  0.99935194    -0.59790
N373        N  0.17223626  0.53741829  0.92216359    -0.05400
N374        N  0.17458949  0.52293496  0.89535882    -0.61050
N375        N  0.14902953  0.52623964  0.93963159    -0.07310
N376        N  0.13539345  0.50342176  0.92510493    -0.60060
N377        N  0.17662985  0.59564046  0.96159599    -0.05040
N378        N  0.18415339  0.62502178  0.96579187    -0.61130
Mn379      Mn  0.21027542  0.56208633  0.94280872     1.18440
C380        C  0.16507579  0.63360825  0.98940028     0.97160
C381        C  0.15164026  0.50178351  0.89750191     0.97830
N382        N  0.26638779  0.52233908  0.04967523    -0.07330
N383        N  0.28535203  0.53182274  0.07287209    -0.63640
N384        N  0.23548177  0.45591265  0.02104124    -0.06130
N385        N  0.22943723  0.42561959  0.01846042    -0.64310
N386        N  0.25886321  0.46425868  0.00177962    -0.06840
N387        N  0.26822580  0.43917216  0.98520818    -0.63900
N388        N  0.24006639  0.51275284  0.06314389    -0.05730
N389        N  0.23971777  0.51565978  0.09379055    -0.64590
Mn390      Mn  0.26831137  0.51769792  0.99452428     1.10660
C391        C  0.26746496  0.52765507  0.10024378     0.98380
C392        C  0.24950126  0.41496701  0.99598736     0.98460
N393        N  0.14512977  0.48225296  0.00013872    -0.06850
N394        N  0.13520829  0.45974131  0.98204900    -0.62220
N395        N  0.17011520  0.52856275  0.05988788    -0.06160
N396        N  0.17383784  0.54520011  0.08529576    -0.58950
N397        N  0.14875371  0.54301904  0.04051125    -0.07470
N398        N  0.13746458  0.56946780  0.05232374    -0.61790
N399        N  0.16310130  0.46892333  0.02318083    -0.06460
N400        N  0.16440161  0.43793852  0.02257421    -0.58970
Mn401      Mn  0.14701324  0.53463294  0.99018805     1.20190
Mn402      Mn  0.20223194  0.49130541  0.04247295     1.10090
Cl403      Cl  0.20726227  0.52635705  0.99249956    -0.86940
C404        C  0.14742781  0.43225310  0.99692570     0.95390
C405        C  0.15355081  0.57095144  0.07985113     0.95190
N406        N  0.93498988  0.52074069  0.17132741    -0.07100
N407        N  0.91637613  0.49887974  0.16106785    -0.59220
N408        N  0.95636067  0.59308091  0.18615216    -0.06780
N409        N  0.95857554  0.62368902  0.18877013    -0.61340
N410        N  0.97308520  0.58290357  0.16215931    -0.06370
N411        N  0.98876757  0.60682365  0.14910812    -0.59190
N412        N  0.92350650  0.53159310  0.19771931    -0.06050
N413        N  0.89872708  0.51631909  0.20694336    -0.61700
C414        C  0.89360959  0.49690932  0.18388341     0.95080
C415        C  0.97894097  0.63199898  0.16596793     0.94860
N416        N  0.99261305  0.58051385  0.27695842    -0.07280
N417        N  0.00648390  0.60566461  0.28872549    -0.59790
N418        N  0.92904692  0.53831747  0.26683051    -0.05400
N419        N  0.89841397  0.53398370  0.26806503    -0.61050
N420        N  0.94635149  0.51572287  0.28223714    -0.07310
N421        N  0.92588121  0.49346726  0.29265671    -0.60060
N422        N  0.96985887  0.59201371  0.25723201    -0.05040
N423        N  0.96693436  0.62317152  0.25576869    -0.61130
Mn424      Mn  0.94474243  0.56408699  0.22668985     1.18440
C425        C  0.98958935  0.63215885  0.27510085     0.97160
C426        C  0.89560208  0.50589658  0.28336642     0.97830
N427        N  0.03405183  0.54320310  0.15235828    -0.07330
N428        N  0.04445551  0.56982410  0.13866540    -0.63640
N429        N  0.01953723  0.46852932  0.17890369    -0.06130
N430        N  0.01938696  0.43763404  0.18401616    -0.64310
N431        N  0.99530002  0.47928305  0.16107890    -0.06840
N432        N  0.97764417  0.45510664  0.15409301    -0.63900
N433        N  0.05563004  0.53051417  0.17250619    -0.05730
N434        N  0.08069728  0.54803013  0.17312120    -0.64590
Mn435      Mn  0.98388775  0.53140173  0.15914667     1.10660
C436        C  0.07336303  0.57273071  0.15236197     0.98380
C437        C  0.99311538  0.42929835  0.16925911     0.98460
N438        N  0.01289181  0.47019186  0.27227449    -0.06850
N439        N  0.00173853  0.44289608  0.28483903    -0.62220
N440        N  0.06842837  0.52323478  0.24220411    -0.06160
N441        N  0.09908615  0.52648540  0.23888088    -0.58950
N442        N  0.05774162  0.53100859  0.27023126    -0.07470
N443        N  0.08312237  0.53925257  0.28713105    -0.61790
N444        N  0.03231715  0.46330110  0.24879225    -0.06460
N445        N  0.03589141  0.43247441  0.24588796    -0.58970
Mn446      Mn  0.00247502  0.52394777  0.27865238     1.20190
Mn447      Mn  0.04443126  0.49659903  0.21021175     1.10090
Cl448      Cl  0.99432991  0.52932508  0.21921624    -0.86940
C449        C  0.01675560  0.41951789  0.26777350     0.95390
C450        C  0.10863873  0.53680141  0.26637213     0.95190
N451        N  0.94713941  0.24953471  0.00618163    -0.07100
N452        N  0.92249346  0.23309354  0.01739869    -0.59220
N453        N  0.97135805  0.27123322  0.93539384    -0.06780
N454        N  0.96700143  0.27509206  0.90452521    -0.61340
N455        N  0.99098942  0.24659694  0.94306353    -0.06370
N456        N  0.00149951  0.23405768  0.91613540    -0.59190
N457        N  0.93601072  0.27825753  0.99676811    -0.06050
N458        N  0.90522910  0.28234430  0.00108093    -0.61700
C459        C  0.89657369  0.25456976  0.01422176     0.95080
C460        C  0.98572887  0.25235838  0.89226600     0.94860
N461        N  0.01185900  0.35415657  0.94240929    -0.07280
N462        N  0.02880894  0.35989201  0.91633295    -0.59790
N463        N  0.95228232  0.34722930  0.99715729    -0.05400
N464        N  0.92701970  0.35059894  0.01518859    -0.61050
N465        N  0.97509678  0.36532580  0.00572218    -0.07310
N466        N  0.96561113  0.38152268  0.03009604    -0.60060
N467        N  0.98600371  0.33977450  0.93526769    -0.05040
N468        N  0.98424973  0.33593144  0.90497117    -0.61130
Mn469      Mn  0.96082630  0.30951904  0.96655202     1.18440
C470        C  0.01080709  0.34783203  0.89336139     0.97160
C471        C  0.93590510  0.37164800  0.03589499     0.97830
N472        N  0.05723085  0.23218197  0.98693765    -0.07330
N473        N  0.07743052  0.22474899  0.96316904    -0.63640
N474        N  0.03471656  0.25561709  0.06180391    -0.06130
N475        N  0.03579179  0.25879836  0.09236893    -0.64310
N476        N  0.01010857  0.23988073  0.05285523    -0.06840
N477        N  0.99272153  0.23343336  0.07913115    -0.63900
N478        N  0.07464158  0.24260875  0.00961745    -0.05730
N479        N  0.10510590  0.24007253  0.00411357    -0.64590
Mn480      Mn  0.00153346  0.23871366  0.99700901     1.10660
C481        C  0.10767190  0.22969905  0.97510326     0.98380
C482        C  0.00982090  0.24537028  0.10365548     0.98460
N483        N  0.03563998  0.35155807  0.04350822    -0.06850
N484        N  0.02060163  0.36808048  0.06513880    -0.62220
N485        N  0.08573222  0.31206101  0.99448784    -0.06160
N486        N  0.11369296  0.30497772  0.98209311    -0.58950
N487        N  0.07314248  0.33845331  0.98076052    -0.07470
N488        N  0.09285867  0.35031631  0.95933217    -0.61790
N489        N  0.04905643  0.32543635  0.05707710    -0.06460
N490        N  0.04405866  0.32394201  0.08798831    -0.58970
Mn491      Mn  0.02473704  0.35460377  0.99254342     1.20190
Mn492      Mn  0.06132472  0.28415936  0.03107759     1.10090
Cl493      Cl  0.01174964  0.29636838  0.99707524    -0.86940
C494        C  0.02608895  0.35044874  0.09254844     0.95390
C495        C  0.11864295  0.32941784  0.96071299     0.95190
N496        N  0.99205249  0.69482546  0.05034416    -0.07100
N497        N  0.97500007  0.68650783  0.07565274    -0.59220
N498        N  0.02969950  0.70152166  0.97931314    -0.06780
N499        N  0.03950236  0.69069735  0.95226789    -0.61340
N500        N  0.04878036  0.69090707  0.00260646    -0.06370
N501        N  0.07203159  0.67209524  0.99207883    -0.59190
N502        N  0.97322763  0.70419531  0.02628908    -0.06050
N503        N  0.94317240  0.70242145  0.03451184    -0.61700
C504        C  0.94457488  0.69158568  0.06520046     0.95080
C505        C  0.06598910  0.67268513  0.96051730     0.94860
N506        N  0.01027888  0.79455661  0.95040720    -0.07280
N507        N  0.01524760  0.80883226  0.92176299    -0.59790
N508        N  0.94895356  0.76693801  0.99268380    -0.05400
N509        N  0.91879705  0.76147435  0.98721558    -0.61050
N510        N  0.95271710  0.79693173  0.99853726    -0.07310
N511        N  0.92411144  0.81264485  0.99697125    -0.60060
N512        N  0.00456598  0.76447761  0.94683353    -0.05040
N513        N  0.00537989  0.75756432  0.91670663    -0.61130
Mn514      Mn  0.98909030  0.73349895  0.98605675     1.18440
C515        C  0.01246636  0.78501438  0.90099399     0.97160
C516        C  0.90308178  0.78974180  0.99032695     0.97830
N517        N  0.08959944  0.72233124  0.05196788    -0.07330
N518        N  0.11474748  0.70280527  0.05330361    -0.63640
N519        N  0.04354491  0.75470419  0.10240874    -0.06130
N520        N  0.04579342  0.75567799  0.13371558    -0.64310
N521        N  0.03760758  0.72562428  0.09491767    -0.06840
N522        N  0.03682571  0.70633124  0.11997880    -0.63900
N523        N  0.09738130  0.75169808  0.05623067    -0.05730
N524        N  0.12872270  0.75277661  0.05914404    -0.64590
Mn525      Mn  0.04192540  0.70732063  0.04985025     1.10660
C526        C  0.13901052  0.72183761  0.05779947     0.98380
C527        C  0.04201655  0.72498945  0.14393900     0.98460
N528        N  0.99805352  0.82104838  0.05689191    -0.06850
N529        N  0.97585162  0.81534364  0.07963695    -0.62220
N530        N  0.07454705  0.82080568  0.02901550    -0.06160
N531        N  0.10543631  0.82145592  0.02744095    -0.58950
N532        N  0.06117700  0.81930225  0.00103076    -0.07470
N533        N  0.08518471  0.81482200  0.98003878    -0.61790
N534        N  0.02476578  0.82522228  0.07190659    -0.06460
N535        N  0.02056887  0.82802388  0.10223654    -0.58970
Mn536      Mn  0.00508579  0.81133650  0.00139041     1.20190
Mn537      Mn  0.05987488  0.78856623  0.06485932     1.10090
Cl538      Cl  0.02378741  0.76032543  0.02522190    -0.86940
C539        C  0.99084166  0.82025361  0.10841236     0.95390
C540        C  0.11312934  0.81676318  0.99749086     0.95190
N541        N  0.56901030  0.73776663  0.99462299    -0.07100
N542        N  0.59085902  0.74380363  0.97183217    -0.59220
N543        N  0.53909432  0.72741248  0.06787368    -0.06780
N544        N  0.53666258  0.72407266  0.09860247    -0.61340
N545        N  0.51116044  0.72957373  0.05370546    -0.06370
N546        N  0.48911482  0.73390155  0.07655436    -0.59190
N547        N  0.58419378  0.73685506  0.02185030    -0.06050
N548        N  0.61497150  0.73787523  0.01861315    -0.61700
C549        C  0.61986630  0.74355305  0.98786604     0.95080
C550        C  0.50595115  0.72994807  0.10495884     0.94860
N551        N  0.53343824  0.82604300  0.08391158    -0.07280
N552        N  0.52806706  0.84239901  0.10889580    -0.59790
N553        N  0.59400716  0.80747026  0.03847367    -0.05400
N554        N  0.62407096  0.80627169  0.02994295    -0.61050
N555        N  0.58131244  0.83626210  0.03197116    -0.07310
N556        N  0.60237332  0.85492924  0.01872459    -0.60060
N557        N  0.54704051  0.79790122  0.09198841    -0.05040
N558        N  0.55200875  0.79497503  0.12311032    -0.61130
Mn559      Mn  0.56610812  0.76738589  0.05543368     1.18440
C560        C  0.53932519  0.82281113  0.13303570     0.97160
C561        C  0.62872368  0.83550722  0.01738439     0.97830
N562        N  0.45746003  0.75202678  0.99944420    -0.07330
N563        N  0.43165851  0.73501471  0.00525475    -0.63640
N564        N  0.49859615  0.79059708  0.94159644    -0.06130
N565        N  0.49940458  0.80019070  0.91144902    -0.64310
N566        N  0.51142832  0.76159805  0.94640658    -0.06840
N567        N  0.52148986  0.75094695  0.91858851    -0.63900
N568        N  0.44782306  0.78166149  0.99189736    -0.05730
N569        N  0.41660085  0.78581621  0.99229446    -0.64590
Mn570      Mn  0.51225787  0.74190985  0.99813288     1.10660
C571        C  0.40635916  0.75694865  0.00069403     0.98380
C572        C  0.51336819  0.77559980  0.89685857     0.98460
N573        N  0.53103156  0.86602924  0.98749746    -0.06850
N574        N  0.55462819  0.88043219  0.97288853    -0.62220
N575        N  0.46102023  0.84391478  0.01927947    -0.06160
N576        N  0.43133435  0.84424866  0.02914657    -0.58950
N577        N  0.47967047  0.85484294  0.04077838    -0.07470
N578        N  0.46288174  0.86326855  0.06578299    -0.61790
N579        N  0.51193613  0.85470205  0.96667413    -0.06460
N580        N  0.52192595  0.86105413  0.93759809    -0.58970
Mn581      Mn  0.53122095  0.84736424  0.03657124     1.20190
Mn582      Mn  0.47940087  0.81845263  0.97947163     1.10090
Cl583      Cl  0.52197753  0.79361128  0.01716917    -0.86940
C584        C  0.54860469  0.87690482  0.94181949     0.95390
C585        C  0.43271400  0.85612753  0.05821580     0.95190
N586        N  0.49772660  0.97500376  0.82238676    -0.07100
N587        N  0.51614828  0.94863388  0.82491413    -0.59220
N588        N  0.44652236  0.04064398  0.82696492    -0.06780
N589        N  0.42391696  0.06281075  0.83116573    -0.61340
N590        N  0.43697655  0.01976669  0.80756289    -0.06370
N591        N  0.40757422  0.02739603  0.79817487    -0.59190
N592        N  0.50609627  0.99513591  0.84330551    -0.06050
N593        N  0.53063328  0.98293505  0.86020228    -0.61700
C594        C  0.53681126  0.95414728  0.84834115     0.95080
C595        C  0.39995566  0.05457074  0.81244905     0.94860
N596        N  0.50802777  0.10952208  0.80015999    -0.07280
N597        N  0.49663934  0.13711662  0.78822669    -0.59790
N598        N  0.54559571  0.05120644  0.84293908    -0.05400
N599        N  0.55783198  0.05199417  0.87144911    -0.61050
N600        N  0.56411487  0.06445395  0.82164623    -0.07310
N601        N  0.58909296  0.07567431  0.83571169    -0.60060
N602        N  0.48846571  0.09735051  0.82129441    -0.05040
N603        N  0.46324780  0.11727897  0.82437367    -0.61130
Mn604      Mn  0.49590556  0.04605500  0.83520731     1.18440
C605        C  0.46872782  0.14194949  0.80303039     0.97160
C606        C  0.58482368  0.06747396  0.86692224     0.97830
N607        N  0.44452676  0.00852471  0.73908840    -0.07330
N608        N  0.41356205  0.00649105  0.73892391    -0.63640
N609        N  0.51678776  0.97922165  0.72626727    -0.06130
N610        N  0.53344641  0.95604961  0.71208238    -0.64310
N611        N  0.50284119  0.96646339  0.75152686    -0.06840
N612        N  0.50921343  0.93574574  0.75529750    -0.63900
N613        N  0.45434401  0.02930729  0.71713849    -0.05730
N614        N  0.42809378  0.04296063  0.70228061    -0.64590
Mn615      Mn  0.47036924  0.99141278  0.78057159     1.10660
C616        C  0.40269087  0.02777136  0.71650147     0.98380
C617        C  0.52853934  0.92912497  0.73112899     0.98460
N618        N  0.57445881  0.05268303  0.75033560    -0.06850
N619        N  0.60526091  0.05091824  0.75508501    -0.62220
N620        N  0.50600384  0.08948412  0.71317961    -0.06160
N621        N  0.48924385  0.11301596  0.69654591    -0.58950
N622        N  0.52481512  0.10277800  0.73303957    -0.07470
N623        N  0.52280139  0.13383073  0.72982053    -0.61790
N624        N  0.56566663  0.03669104  0.72593569    -0.06460
N625        N  0.59218986  0.02351295  0.71331283    -0.58970
Mn626      Mn  0.54372925  0.08189890  0.77635108     1.20190
Mn627      Mn  0.51035160  0.03403171  0.71734292     1.10090
Cl628      Cl  0.50520533  0.03822549  0.77693409    -0.86940
C629        C  0.61653782  0.03269409  0.73239619     0.95390
C630        C  0.50058910  0.14072599  0.70767004     0.95190
N631        N  0.50467690  0.18446428  0.93567660    -0.07100
N632        N  0.48511024  0.17511293  0.91377256    -0.59220
N633        N  0.56419948  0.20319446  0.98399933    -0.06780
N634        N  0.59165947  0.20310904  0.99928047    -0.61340
N635        N  0.54525314  0.18275366  0.99795145    -0.06370
N636        N  0.55948071  0.16843108  0.02315590    -0.59190
N637        N  0.52428005  0.20481132  0.92281457    -0.06050
N638        N  0.51893533  0.20917036  0.89220231    -0.61700
C639        C  0.49446812  0.19086245  0.88688844     0.95080
C640        C  0.58846200  0.18128637  0.02354185     0.94860
N641        N  0.55225747  0.29957705  0.98755562    -0.07280
N642        N  0.57426520  0.31531545  0.00295060    -0.59790
N643        N  0.52600890  0.27729722  0.91648748    -0.05400
N644        N  0.52644150  0.27472037  0.88555907    -0.61050
N645        N  0.50555600  0.30027717  0.92458863    -0.07310
N646        N  0.49067555  0.31282314  0.89821626    -0.60060
N647        N  0.56702722  0.27465194  0.97558882    -0.05040
N648        N  0.59764788  0.27265904  0.98189753    -0.61130
Mn649      Mn  0.54610964  0.23994564  0.94939450     1.18440
C650        C  0.60250991  0.29761537  0.99900556     0.97160
C651        C  0.50460828  0.29664809  0.87395149     0.97830
N652        N  0.48236406  0.18829975  0.03646383    -0.07330
N653        N  0.49552857  0.17373768  0.06216438    -0.63640
N654        N  0.42886437  0.21804820  0.98058720    -0.06130
N655        N  0.40322633  0.22399106  0.96316526    -0.64310
N656        N  0.44431158  0.19202500  0.97250695    -0.06840
N657        N  0.42810194  0.17876203  0.95025617    -0.63900
N658        N  0.46251609  0.21135914  0.04471705    -0.05730
N659        N  0.46059749  0.21256813  0.07564335    -0.64590
Mn660      Mn  0.49435102  0.18457196  0.98615825     1.10660
C661        C  0.48111210  0.18919782  0.08610556     0.98380
C662        C  0.40225819  0.19907807  0.94500689     0.98460
N663        N  0.44058388  0.30692448  0.96741297    -0.06850
N664        N  0.41841203  0.32052861  0.94671306    -0.62220
N665        N  0.46477961  0.28275419  0.04264734    -0.06160
N666        N  0.46268090  0.27855402  0.07342366    -0.58950
N667        N  0.48783516  0.30138244  0.03381077    -0.07470
N668        N  0.50314100  0.30876071  0.06047720    -0.61790
N669        N  0.42580453  0.28612731  0.98542701    -0.06460
N670        N  0.39545307  0.28528718  0.97925653    -0.58970
Mn671      Mn  0.49674862  0.30527469  0.97824144     1.20190
Mn672      Mn  0.44551612  0.24945354  0.01350037     1.10090
Cl673      Cl  0.49613945  0.24518355  0.98207877    -0.86940
C674        C  0.39017719  0.30590646  0.95489051     0.95390
C675        C  0.48639110  0.29426467  0.08522936     0.95190
N676        N  0.50990018  0.98236965  0.14999824    -0.07100
N677        N  0.52758899  0.95668113  0.14285347    -0.59220
N678        N  0.45329819  0.03857813  0.17133930    -0.06780
N679        N  0.42731869  0.05720959  0.17185401    -0.61340
N680        N  0.47479094  0.05109123  0.15261273    -0.06370
N681        N  0.46371689  0.07871475  0.13969238    -0.59190
N682        N  0.48449215  0.97325622  0.16537013    -0.06050
N683        N  0.48318881  0.94234973  0.16720793    -0.61700
C684        C  0.51005962  0.93195003  0.15368328     0.95080
C685        C  0.43409564  0.08232211  0.15217468     0.94860
N686        N  0.45290130  0.02417773  0.26804996    -0.07280
N687        N  0.42722028  0.02872663  0.28690397    -0.59790
N688        N  0.47844175  0.95784316  0.23725743    -0.05400
N689        N  0.47416292  0.92750768  0.23299623    -0.61050
N690        N  0.49664004  0.96097650  0.26246882    -0.07310
N691        N  0.50565871  0.93218413  0.27526207    -0.60060
N692        N  0.44192779  0.02262775  0.23897855    -0.05040
N693        N  0.41091093  0.02710103  0.23681060    -0.61130
Mn694      Mn  0.46435948  0.99819005  0.20303233     1.18440
C695        C  0.40116674  0.03117426  0.26623180     0.97160
C696        C  0.49101140  0.91153829  0.25658349     0.97830
N697        N  0.53837352  0.08051285  0.16322726    -0.07330
N698        N  0.52483965  0.10764150  0.15181299    -0.63640
N699        N  0.58994257  0.01899348  0.18427103    -0.06130
N700        N  0.61556556  0.99928420  0.18563622    -0.64310
N701        N  0.57282810  0.01408841  0.15906326    -0.06840
N702        N  0.58618919  0.99128174  0.14281056    -0.63900
N703        N  0.55556250  0.08558157  0.18836231    -0.05730
N704        N  0.55466552  0.11601791  0.19436584    -0.64590
Mn705      Mn  0.52411567  0.03219164  0.15422554     1.10660
C706        C  0.53539226  0.12931869  0.17150127     0.98380
C707        C  0.61269143  0.98203941  0.15958592     0.98460
N708        N  0.56468839  0.99598479  0.27552412    -0.06850
N709        N  0.58502918  0.97456593  0.29132810    -0.62220
N710        N  0.54620563  0.07383625  0.25975196    -0.06160
N711        N  0.54765637  0.10490284  0.25813235    -0.58950
N712        N  0.52008310  0.06488669  0.27453845    -0.07470
N713        N  0.50233462  0.09133217  0.28075484    -0.61790
N714        N  0.58187952  0.01114095  0.25412034    -0.06460
N715        N  0.61168548  0.00121862  0.25392263    -0.58970
Mn716      Mn  0.50867219  0.01129731  0.27341658     1.20190
Mn717      Mn  0.56893082  0.04750045  0.22207383     1.10090
Cl718      Cl  0.51653749  0.02215235  0.21354982    -0.86940
C719        C  0.61448276  0.97848128  0.27669396     0.95390
C720        C  0.52037709  0.11645697  0.27045706     0.95190
N721        N  0.31423364  0.05235476  0.04558111    -0.07100
N722        N  0.32114464  0.06453639  0.07253947    -0.59220
N723        N  0.32356088  0.07721114  0.96942719    -0.06780
N724        N  0.33132507  0.09435811  0.94369206    -0.61340
N725        N  0.29749274  0.08968349  0.98184230    -0.06370
N726        N  0.28649394  0.11405194  0.96380883    -0.59190
N727        N  0.33984561  0.04020521  0.03225223    -0.06050
N728        N  0.36524798  0.04481712  0.04970330    -0.61700
C729        C  0.35278934  0.05982191  0.07483103     0.95080
C730        C  0.30849378  0.11830330  0.94111322     0.94860
N731        N  0.31701009  0.99831147  0.92264827    -0.07280
N732        N  0.31082608  0.00465340  0.89227117    -0.59790
N733        N  0.34422568  0.97779500  0.99676833    -0.05400
N734        N  0.35930240  0.96473455  0.02207180    -0.61050
N735        N  0.32428574  0.95784767  0.98564616    -0.07310
N736        N  0.32569830  0.93071069  0.00288246    -0.60060
N737        N  0.33665173  0.01847765  0.93337811    -0.05040
N738        N  0.34417777  0.03911285  0.91044648    -0.61130
Mn739      Mn  0.33837225  0.02836374  0.98300482     1.18440
C740        C  0.32746706  0.03040800  0.88526355     0.97160
C741        C  0.34744595  0.93540818  0.02557579     0.97830
N742        N  0.22770762  0.08934700  0.00390000    -0.07330
N743        N  0.22743040  0.12046451  0.00136127    -0.63640
N744        N  0.22399161  0.02354877  0.04501744    -0.06130
N745        N  0.21440793  0.00845133  0.07229305    -0.64310
N746        N  0.24527320  0.04348981  0.05333915    -0.06840
N747        N  0.25035327  0.04354377  0.08387545    -0.63900
N748        N  0.21682776  0.07710301  0.97862924    -0.05730
N749        N  0.21311690  0.10134700  0.95601430    -0.64590
Mn750      Mn  0.27168736  0.06837498  0.02115005     1.10660
C751        C  0.21984062  0.12901107  0.97123800     0.98380
C752        C  0.23128002  0.02197774  0.09629124     0.98460
N753        N  0.25336699  0.95228606  0.98377908    -0.06850
N754        N  0.25701015  0.92163960  0.98931357    -0.62220
N755        N  0.22397526  0.01506429  0.93291100    -0.06160
N756        N  0.21260789  0.03173441  0.90674476    -0.58950
N757        N  0.24569724  0.99364580  0.92389212    -0.07470
N758        N  0.24807054  0.99399982  0.89282015    -0.61790
N759        N  0.22666050  0.96453003  0.99528937    -0.06460
N760        N  0.21087067  0.94028688  0.00894528    -0.58970
Mn761      Mn  0.28519974  0.97459822  0.95383301     1.20190
Mn762      Mn  0.21937788  0.02019332  0.98766830     1.10090
Cl763      Cl  0.27843798  0.02185979  0.98690218    -0.86940
C764        C  0.23100606  0.91376849  0.00499288     0.95390
C765        C  0.22800106  0.01770473  0.88179220     0.95190
N766        N  0.77495861  0.97834569  0.98713919    -0.07100
N767        N  0.78650564  0.94820664  0.99122837    -0.59220
N768        N  0.74822591  0.05292521  0.94720646    -0.06780
N769        N  0.74472929  0.06047546  0.91672571    -0.61340
N770        N  0.77817299  0.04642476  0.95524689    -0.06370
N771        N  0.79554400  0.04739991  0.92836907    -0.59190
N772        N  0.74985954  0.97966160  0.96795134    -0.06050
N773        N  0.74422166  0.95091937  0.95870262    -0.61700
C774        C  0.76677034  0.93117474  0.97324301     0.95080
C775        C  0.77383531  0.05700746  0.90453965     0.94860
N776        N  0.66341878  0.06536281  0.99485539    -0.07280
N777        N  0.64422158  0.09105136  0.99167151    -0.59790
N778        N  0.67969575  0.98983780  0.98003617    -0.05400
N779        N  0.67993684  0.96111153  0.96949797    -0.61050
N780        N  0.66634302  0.99096502  0.00793361    -0.07310
N781        N  0.65804214  0.96212773  0.01760628    -0.60060
N782        N  0.68010175  0.06169343  0.96888112    -0.05040
N783        N  0.67246569  0.08459868  0.94737361    -0.61130
Mn784      Mn  0.71440674  0.02164960  0.96545611     1.18440
C785        C  0.64970601  0.10276889  0.96161126     0.97160
C786        C  0.66674433  0.94401569  0.99312312     0.97830
N787        N  0.78476550  0.07849651  0.02578883    -0.07330
N788        N  0.78747854  0.10710917  0.01029073    -0.63640
N789        N  0.79173288  0.02509614  0.08019476    -0.06130
N790        N  0.79700536  0.01573327  0.10995655    -0.64310
N791        N  0.79197111  0.00179260  0.06130648    -0.06840
N792        N  0.78985028  0.97494377  0.08041261    -0.63900
N793        N  0.77066537  0.08371326  0.05326008    -0.05730
N794        N  0.76477840  0.11412217  0.05718895    -0.64590
Mn795      Mn  0.78602040  0.02537068  0.00772187     1.10660
C796        C  0.77548078  0.12922010  0.03084346     0.98380
C797        C  0.79344100  0.98450547  0.11151461     0.98460
N798        N  0.68809512  0.00160027  0.07509960    -0.06850
N799        N  0.67614666  0.97379593  0.08125735    -0.62220
N800        N  0.70270965  0.07830943  0.07954946    -0.06160
N801        N  0.69972356  0.10504497  0.09457702    -0.58950
N802        N  0.67607557  0.07249514  0.06534665    -0.07470
N803        N  0.65393766  0.09459604  0.07077470    -0.61790
N804        N  0.71512988  0.00433942  0.09069191    -0.06460
N805        N  0.72114722  0.97746523  0.10825193    -0.58970
Mn806      Mn  0.67167813  0.03271677  0.03621943     1.20190
Mn807      Mn  0.74493125  0.04748238  0.07722162     1.10090
Cl808      Cl  0.72941599  0.03199092  0.02141619    -0.86940
C809        C  0.69669998  0.95863096  0.10204542     0.95390
C810        C  0.66888033  0.11446314  0.08938805     0.95190
N811        N  0.97564564  0.84870259  0.52845410    -0.07100
N812        N  0.95480954  0.85057173  0.55144880    -0.59220
N813        N  0.01523928  0.86608976  0.45962756    -0.06780
N814        N  0.02212255  0.87741250  0.43059543    -0.61340
N815        N  0.98847114  0.85155789  0.45884720    -0.06370
N816        N  0.97574406  0.85323242  0.43051445    -0.59190
N817        N  0.99882103  0.86806603  0.53231047    -0.06050
N818        N  0.99401049  0.88387567  0.55827384    -0.61700
C819        C  0.96640379  0.87254408  0.57006020     0.95080
C820        C  0.99688703  0.86880470  0.41305992     0.94860
N821        N  0.10199637  0.82004155  0.48756808    -0.07280
N822        N  0.12158754  0.81357681  0.46386647    -0.59790
N823        N  0.06859400  0.85664442  0.54924257    -0.05400
N824        N  0.06396922  0.87505700  0.57319928    -0.61050
N825        N  0.08375911  0.82997991  0.55907561    -0.07310
N826        N  0.08978972  0.82961229  0.58986608    -0.60060
N827        N  0.08487667  0.84649924  0.47945453    -0.05040
N828        N  0.09237894  0.85788291  0.45090962    -0.61130
Mn829      Mn  0.04264114  0.86151456  0.50457811     1.18440
C830        C  0.11554034  0.83732363  0.44128467     0.97160
C831        C  0.07760332  0.85804132  0.59821472     0.97830
N832        N  0.98397781  0.78161196  0.45244743    -0.07330
N833        N  0.97573082  0.78842788  0.42245748    -0.63640
N834        N  0.97247531  0.75038971  0.52143039    -0.06130
N835        N  0.94776083  0.73153292  0.52590570    -0.64310
N836        N  0.96199681  0.77986326  0.52438852    -0.06840
N837        N  0.93192346  0.78191431  0.53248962    -0.63900
N838        N  0.00492492  0.75711679  0.45450404    -0.05730
N839        N  0.01102685  0.74710390  0.42543487    -0.64590
Mn840      Mn  0.97693811  0.81529554  0.49167192     1.10660
C841        C  0.99252145  0.76719721  0.40534767     0.98380
C842        C  0.92265555  0.75207917  0.53359885     0.98460
N843        N  0.06522226  0.75983616  0.56642723    -0.06850
N844        N  0.06602550  0.76429155  0.59705546    -0.62220
N845        N  0.07888691  0.74165076  0.48600552    -0.06160
N846        N  0.09814830  0.74213927  0.46021549    -0.58950
N847        N  0.09721711  0.74435712  0.51052836    -0.07470
N848        N  0.12749665  0.74057421  0.50396198    -0.61790
N849        N  0.04009408  0.74412021  0.55838760    -0.06460
N850        N  0.02275399  0.73894174  0.58479511    -0.58970
Mn851      Mn  0.08844038  0.78890058  0.53115351     1.20190
Mn852      Mn  0.02479814  0.74498740  0.50404443     1.10090
Cl853      Cl  0.03331103  0.80262694  0.50789328    -0.86940
C854        C  0.03962381  0.75133015  0.60900493     0.95390
C855        C  0.12915588  0.74156053  0.47250955     0.95190
N856        N  0.83309012  0.95129518  0.52095703    -0.07100
N857        N  0.84399875  0.92498639  0.53625711    -0.59220
N858        N  0.85708169  0.02223392  0.54192767    -0.06780
N859        N  0.87004428  0.04584389  0.55558669    -0.61340
N860        N  0.83713479  0.00813933  0.56136317    -0.06370
N861        N  0.83635572  0.02139402  0.58869612    -0.59190
N862        N  0.85557295  0.96402040  0.50347513    -0.06050
N863        N  0.88241231  0.94667515  0.50750939    -0.61700
C864        C  0.87493867  0.92273277  0.52855272     0.95080
C865        C  0.85666741  0.04490287  0.58463795     0.94860
N866        N  0.82823342  0.08079881  0.46439699    -0.07280
N867        N  0.82457077  0.11136399  0.46843706    -0.59790
N868        N  0.84572602  0.00618919  0.44259952    -0.05400
N869        N  0.85397816  0.97899579  0.42985619    -0.61050
N870        N  0.82189794  0.02101817  0.42656995    -0.07310
N871        N  0.81373494  0.00415498  0.40272924    -0.60060
N872        N  0.85079387  0.06738160  0.48287494    -0.05040
N873        N  0.86218201  0.08900368  0.50094934    -0.61130
Mn874      Mn  0.85400711  0.01535317  0.49197107     1.18440
C875        C  0.84538612  0.11621140  0.49139306     0.97160
C876        C  0.83347886  0.97786408  0.40520724     0.97830
N877        N  0.76598912  0.00917364  0.57038959    -0.07330
N878        N  0.76946569  0.01273155  0.60097987    -0.63640
N879        N  0.73804799  0.96554591  0.51059558    -0.06130
N880        N  0.72394291  0.94043347  0.49941034    -0.64310
N881        N  0.76227401  0.95470706  0.52861510    -0.06840
N882        N  0.76513020  0.92373502  0.53086795    -0.63900
N883        N  0.74091383  0.02546068  0.55807240    -0.05730
N884        N  0.72701911  0.04138564  0.58184514    -0.64590
Mn885      Mn  0.79927409  0.98088731  0.54504930     1.10660
C886        C  0.74546308  0.03270246  0.60873110     0.98380
C887        C  0.74149971  0.91462317  0.51301092     0.98460
N888        N  0.75088647  0.03369025  0.42979006    -0.06850
N889        N  0.75147840  0.02958215  0.39937992    -0.62220
N890        N  0.73647619  0.07610138  0.49443914    -0.06160
N891        N  0.72532010  0.10145838  0.51003120    -0.58950
N892        N  0.75660303  0.08637771  0.47260587    -0.07470
N893        N  0.75874364  0.11736931  0.47216599    -0.61790
N894        N  0.73270888  0.01398570  0.44567196    -0.06460
N895        N  0.72199167  0.99392145  0.42423949    -0.58970
Mn896      Mn  0.78957915  0.05590968  0.44791182     1.20190
Mn897      Mn  0.73375084  0.02038649  0.50218879     1.10090
Cl898      Cl  0.79375144  0.01826341  0.49698600    -0.86940
C899        C  0.73417559  0.00466011  0.39490363     0.95390
C900        C  0.73931446  0.12731568  0.49507836     0.95190
N901        N  0.18064860  0.93734747  0.50465425    -0.07100
N902        N  0.16417818  0.92625046  0.48153690    -0.59220
N903        N  0.21301326  0.95574004  0.57359487    -0.06780
N904        N  0.21791951  0.95389083  0.60464955    -0.61340
N905        N  0.18519958  0.96976857  0.56655778    -0.06370
N906        N  0.17007718  0.97743016  0.59237659    -0.59190
N907        N  0.20873063  0.92213819  0.50817575    -0.06050
N908        N  0.21162849  0.90014325  0.48659826    -0.61700
C909        C  0.18350420  0.90337553  0.47008598     0.95080
C910        C  0.19064788  0.96712067  0.61586666     0.94860
N911        N  0.29385513  0.99852730  0.54692786    -0.07280
N912        N  0.29823299  0.01883739  0.56999098    -0.59790
N913        N  0.27926484  0.93419658  0.50187886    -0.05400
N914        N  0.27997841  0.90488653  0.49372525    -0.61050
N915        N  0.29519055  0.95300199  0.48241997    -0.07310
N916        N  0.30706583  0.93475679  0.45929474    -0.60060
N917        N  0.28177220  0.97241815  0.56015440    -0.05040
N918        N  0.27969648  0.97398279  0.59114113    -0.61130
Mn919      Mn  0.24672204  0.94507150  0.53647535     1.18440
C920        C  0.28975362  0.00261727  0.59772144     0.97160
C921        C  0.29731252  0.90433814  0.46764003     0.97830
N922        N  0.17000542  0.03392849  0.53122723    -0.07330
N923        N  0.15287802  0.04829822  0.55292479    -0.63640
N924        N  0.18298526  0.01763102  0.45496450    -0.06130
N925        N  0.17940011  0.01764142  0.42438862    -0.64310
N926        N  0.16288621  0.99947905  0.46980292    -0.06840
N927        N  0.14352514  0.98782947  0.44914655    -0.63900
N928        N  0.18848022  0.05402604  0.51643038    -0.05730
N929        N  0.18593850  0.08172126  0.52894192    -0.64590
Mn930      Mn  0.17280828  0.98513949  0.51867348     1.10660
C931        C  0.16233857  0.07875837  0.55032219     0.98380
C932        C  0.15490271  0.99915109  0.42079904     0.98460
N933        N  0.27609421  0.01844877  0.43949009    -0.06850
N934        N  0.28850979  0.01181641  0.41121904    -0.62220
N935        N  0.25040292  0.07248092  0.49395911    -0.06160
N936        N  0.24451317  0.10322794  0.49480930    -0.58950
N937        N  0.28048452  0.06365475  0.49840648    -0.07470
N938        N  0.29628217  0.09051127  0.50195292    -0.61790
N939        N  0.24826612  0.03387086  0.43506596    -0.06460
N940        N  0.24133429  0.03859363  0.40452302    -0.58970
Mn941      Mn  0.28994061  0.00808670  0.49181234     1.20190
Mn942      Mn  0.21686794  0.04458163  0.47510226     1.10090
Cl943      Cl  0.23211527  0.99566967  0.50553912    -0.86940
C944        C  0.26634909  0.02491679  0.38955541     0.95390
C945        C  0.27266606  0.11499420  0.50007298     0.95190
N946        N  0.94386364  0.20013086  0.50608619    -0.07100
N947        N  0.92370303  0.18903713  0.52764258    -0.59220
N948        N  0.98054342  0.21620008  0.43643127    -0.06780
N949        N  0.98797573  0.21704169  0.40637979    -0.61340
N950        N  0.99642949  0.19297175  0.45237116    -0.06370
N951        N  0.01561353  0.17736132  0.43282840    -0.59190
N952        N  0.92975098  0.22313678  0.48828700    -0.06050
N953        N  0.90012604  0.22841305  0.49720521    -0.61700
C954        C  0.89651784  0.20743394  0.52196970     0.95080
C955        C  0.00970865  0.19308824  0.40410251     0.94860
N956        N  0.99793894  0.30869956  0.43789166    -0.07280
N957        N  0.01410870  0.32007563  0.41242604    -0.59790
N958        N  0.93043715  0.29291118  0.47558327    -0.05400
N959        N  0.89957591  0.29146773  0.47686610    -0.61050
N960        N  0.94195256  0.31264163  0.49529093    -0.07310
N961        N  0.91691744  0.32384266  0.51235199    -0.60060
N962        N  0.97952230  0.28678541  0.42799978    -0.05040
N963        N  0.98135891  0.28342278  0.39745068    -0.61130
Mn964      Mn  0.95502580  0.25460242  0.45687628     1.18440
C965        C  0.00285847  0.30370607  0.38735627     0.97160
C966        C  0.89046053  0.31013496  0.49969348     0.97830
N967        N  0.04754290  0.19212682  0.50228526    -0.07330
N968        N  0.06651019  0.17040437  0.49010676    -0.63640
N969        N  0.01662666  0.21956951  0.56741368    -0.06130
N970        N  0.00707938  0.22979182  0.59460744    -0.64310
N971        N  0.99568430  0.20094737  0.55585397    -0.06840
N972        N  0.97061346  0.19957174  0.57507102    -0.63900
N973        N  0.06438785  0.21410586  0.51386131    -0.05730
N974        N  0.09508443  0.20787392  0.51032320    -0.64590
Mn975      Mn  0.99587021  0.19401418  0.50453168     1.10660
C976        C  0.09626555  0.18016796  0.49574886     0.98380
C977        C  0.97819160  0.21841192  0.59880475     0.98460
N978        N  0.00129920  0.31220850  0.54968785    -0.06850
N979        N  0.98625398  0.32615303  0.57400149    -0.62220
N980        N  0.06752752  0.28380146  0.51036659    -0.06160
N981        N  0.09826762  0.27920341  0.50746514    -0.58950
N982        N  0.05530169  0.30732781  0.49164399    -0.07470
N983        N  0.07957726  0.31904946  0.47438815    -0.61790
N984        N  0.02198168  0.29052881  0.56215554    -0.06460
N985        N  0.02295230  0.29023780  0.59316066    -0.58970
Mn986      Mn  0.99881519  0.31367994  0.49356374     1.20190
Mn987      Mn  0.04301258  0.25181994  0.53838406     1.10090
Cl988      Cl  0.99814819  0.25401672  0.49835986    -0.86940
C989        C  0.00086867  0.31199154  0.60118032     0.95390
C990        C  0.10621548  0.30072032  0.48520673     0.95190
N991        N  0.00722914  0.96465742  0.31988586    -0.07100
N992        N  0.98846445  0.94129203  0.32821493    -0.59220
N993        N  0.06837853  0.01336433  0.30376778    -0.06780
N994        N  0.09577613  0.02728107  0.30483535    -0.61340
N995        N  0.04935483  0.02318855  0.32601272    -0.06370
N996        N  0.06316344  0.04393866  0.34271623    -0.59190
N997        N  0.02806114  0.95473574  0.29897772    -0.06050
N998        N  0.02456837  0.92480791  0.29316032    -0.61700
C999        C  0.99940926  0.91689243  0.31067864     0.95080
C1000       C  0.09212545  0.04656116  0.32938085     0.94860
N1001       N  0.05888901  0.03255512  0.21024758    -0.07280
N1002       N  0.08272244  0.04720324  0.19457716    -0.59790
N1003       N  0.03412237  0.96091204  0.22776169    -0.05400
N1004       N  0.03516743  0.92982503  0.23043875    -0.61050
N1005       N  0.01012312  0.97231773  0.20980597    -0.07310
N1006       N  0.99267161  0.94783870  0.20224384    -0.60060
N1007       N  0.07228954  0.01645991  0.23475116    -0.05040
N1008       N  0.10298165  0.01910945  0.23689314    -0.61130
Mn1009     Mn  0.05113633  0.98628930  0.26655462     1.18440
C1010       C  0.11008933  0.03824327  0.21238685     0.97160
C1011       C  0.00914783  0.92112348  0.21542983     0.97830
N1012       N  0.99314941  0.06837523  0.32587723    -0.07330
N1013       N  0.01441074  0.08773351  0.33616446    -0.63640
N1014       N  0.93142250  0.02612317  0.30234803    -0.06130
N1015       N  0.90325898  0.01366272  0.30142708    -0.64310
N1016       N  0.94957724  0.01043959  0.32380246    -0.06840
N1017       N  0.93442093  0.98709941  0.33798042    -0.63900
N1018       N  0.97473180  0.08373319  0.30422085    -0.05730
N1019       N  0.98282931  0.11340458  0.29973339    -0.64590
Mn1020     Mn  0.99962780  0.01620811  0.32607807     1.10660
C1021       C  0.00801716  0.11537076  0.31900470     0.98380
C1022       C  0.90563569  0.98927885  0.32363511     0.98460
N1023       N  0.94590037  0.01909193  0.21118931    -0.06850
N1024       N  0.92590600  0.99718173  0.20163114    -0.62220
N1025       N  0.97152952  0.09132712  0.23265154    -0.06160
N1026       N  0.97069603  0.12211000  0.23625337    -0.58950
N1027       N  0.99418783  0.08225387  0.21300032    -0.07470
N1028       N  0.01060710  0.10805033  0.20438037    -0.61790
N1029       N  0.92987522  0.03646875  0.23137550    -0.06460
N1030       N  0.90022052  0.02861647  0.23487052    -0.58970
Mn1031     Mn  0.00203897  0.02707672  0.20767177     1.20190
Mn1032     Mn  0.95116779  0.05989251  0.26767162     1.10090
Cl1033     Cl  0.00092667  0.02244242  0.26652042    -0.86940
C1034       C  0.89722314  0.00408592  0.21678847     0.95390
C1035       C  0.99497981  0.13285963  0.21907820     0.95190
N1036       N  0.06763528  0.05929852  0.68045938    -0.07100
N1037       N  0.09874990  0.05660200  0.67848332    -0.59220
N1038       N  0.99833336  0.09582129  0.66434883    -0.06780
N1039       N  0.97660817  0.11780025  0.65347656    -0.61340
N1040       N  0.01385467  0.10685234  0.68805220    -0.06370
N1041       N  0.00327457  0.13545619  0.69418836    -0.59190
N1042       N  0.05371536  0.04327078  0.65906834    -0.06050
N1043       N  0.07564054  0.02812104  0.64227949    -0.61700
C1044       C  0.10357641  0.03745306  0.65458400     0.95080
C1045       C  0.98006467  0.14213891  0.67292937     0.94860
N1046       N  0.93406949  0.03132302  0.68588329    -0.07280
N1047       N  0.90615983  0.04630176  0.69062012    -0.59790
N1048       N  0.00181916  0.99089915  0.66036424    -0.05400
N1049       N  0.02238471  0.97049910  0.64767746    -0.61050
N1050       N  0.98341585  0.97553998  0.68058457    -0.07310
N1051       N  0.99027210  0.94470000  0.68162985    -0.60060
N1052       N  0.95007670  0.04639167  0.66355922    -0.05040
N1053       N  0.93362232  0.07193003  0.65304967    -0.61130
Mn1054     Mn  0.00129811  0.04342684  0.65964191     1.18440
C1055       C  0.90658241  0.07213763  0.67019209     0.97160
C1056       C  0.01449052  0.94191907  0.66125430     0.97830
N1057       N  0.02233328  0.10027801  0.75795407    -0.07330
N1058       N  0.02023425  0.13130337  0.75732282    -0.63640
N1059       N  0.06187346  0.03005981  0.77363688    -0.06130
N1060       N  0.08826596  0.01409624  0.78573837    -0.64310
N1061       N  0.07143256  0.04972087  0.75056840    -0.06840
N1062       N  0.10216691  0.04819404  0.74639192    -0.63900
N1063       N  0.00430974  0.08692433  0.77982634    -0.05730
N1064       N  0.98763929  0.11061509  0.79368787    -0.64590
Mn1065     Mn  0.04368741  0.07885308  0.71936791     1.10660
C1066       C  0.99859748  0.13827421  0.77898463     0.98380
C1067       C  0.11310041  0.02620927  0.76778656     0.98460
N1068       N  0.98500825  0.96749215  0.75153328    -0.06850
N1069       N  0.98527661  0.93676425  0.74869866    -0.62220
N1070       N  0.94964199  0.03363637  0.78009823    -0.06160
N1071       N  0.92629882  0.04789098  0.79688232    -0.58950
N1072       N  0.93610030  0.01988391  0.75655072    -0.07470
N1073       N  0.90502151  0.02324468  0.75689367    -0.61790
N1074       N  0.00431492  0.97554780  0.77418958    -0.06460
N1075       N  0.01871195  0.94845941  0.78705787    -0.58970
Mn1076     Mn  0.95906835  0.99835479  0.71851332     1.20190
Mn1077     Mn  0.00550985  0.03096603  0.78033214     1.10090
Cl1078     Cl  0.00281378  0.03717006  0.72008743    -0.86940
C1079       C  0.00612495  0.92441140  0.77037894     0.95390
C1080       C  0.89855691  0.04063166  0.78165943     0.95190
C1081       C  0.00946301  0.28723947  0.23335572    -0.00410
C1082       C  0.01155311  0.26358800  0.25775007    -0.00410
C1083       C  0.74757643  0.96102580  0.24427510    -0.00410
C1084       C  0.77204783  0.96772922  0.26491185    -0.00410
C1085       C  0.97984367  0.76908993  0.24328548    -0.00410
C1086       C  0.98262054  0.79196463  0.26540414    -0.00410
C1087       C  0.24218406  0.02559514  0.25177256    -0.00410
C1088       C  0.26760983  0.02101897  0.23112668    -0.00410
C1089       C  0.26079663  0.27307540  0.48438652    -0.00410
C1090       C  0.23663914  0.25174335  0.48422169    -0.00410
C1091       C  0.73698119  0.28432968  0.51050405    -0.00410
C1092       C  0.76248538  0.26222252  0.51578629    -0.00410
C1093       C  0.28142909  0.75131574  0.44728606    -0.00410
C1094       C  0.26054475  0.77761305  0.44089826    -0.00410
C1095       C  0.26656136  0.03884614  0.74841454    -0.00410
C1096       C  0.24382940  0.03300473  0.72555630    -0.00410
C1097       C  0.23297022  0.28169349  0.95907420    -0.00410
C1098       C  0.26023893  0.26301915  0.95163220    -0.00410
C1099       C  0.24616855  0.76062787  0.99288170    -0.00410
C1100       C  0.26880859  0.78205641  0.00046049    -0.00410
C1101       C  0.50481294  0.75127326  0.25879647    -0.00410
C1102       C  0.49915943  0.77532047  0.23511834    -0.00410
C1103       C  0.49488049  0.27383778  0.24107391    -0.00410
C1104       C  0.49854640  0.24994539  0.22010218    -0.00410
C1105       C  0.47957095  0.27139005  0.74104093    -0.00410
C1106       C  0.48247379  0.29704204  0.71939736    -0.00410
C1107       C  0.98960065  0.29327583  0.75742011    -0.00410
C1108       C  0.98453528  0.27110182  0.73512568    -0.00410
C1109       C  0.76181087  0.28731079  0.01601326    -0.00410
C1110       C  0.73725044  0.26677090  0.01395770    -0.00410
C1111       C  0.26606659  0.50684844  0.25513325    -0.00410
C1112       C  0.24149833  0.51609410  0.23383495    -0.00410
C1113       C  0.73840196  0.48184013  0.27011836    -0.00410
C1114       C  0.76162725  0.48520666  0.24656876    -0.00410
C1115       C  0.26779430  0.49753500  0.73684589    -0.00410
C1116       C  0.24186226  0.49241942  0.75656352    -0.00410
C1117       C  0.01475950  0.79022735  0.74044335    -0.00410
C1118       C  0.01024870  0.76663185  0.76382939    -0.00410
C1119       C  0.74406198  0.05585594  0.76745972    -0.00410
C1120       C  0.76787267  0.05876795  0.74473307    -0.00410
C1121       C  0.76891264  0.76878261  0.96325247    -0.00410
C1122       C  0.74576590  0.79392066  0.96127332    -0.00410
C1123       C  0.74660009  0.56050220  0.73994900    -0.00410
C1124       C  0.77174328  0.56189314  0.76136030    -0.00410
C1125       C  0.76531615  0.76268318  0.52489844    -0.00410
C1126       C  0.78748258  0.78569525  0.52659403    -0.00410
C1127       C  0.52860182  0.77025595  0.73865739    -0.00410
C1128       C  0.53243573  0.79453493  0.75896819    -0.00410
C1129       C  0.81409579  0.02706368  0.77021708    -0.27300
C1130       C  0.80207171  0.05677919  0.75733610    -0.15370
C1131       C  0.82046218  0.08373148  0.76204393     0.35260
C1132       C  0.85165493  0.07943910  0.77575834    -0.26740
C1133       C  0.86409063  0.04920503  0.78718995    -0.15980
C1134       C  0.84336756  0.02346336  0.78675316     0.36350
N1135       N  0.85284653  0.99230770  0.80043352    -0.90230
H1136       H  0.79994575  0.00633164  0.76826605     0.17460
H1137       H  0.86732553  0.09923267  0.77483090     0.17450
N1138       N  0.80915185  0.11484671  0.74984044    -0.89260
H1139       H  0.83578512  0.98617825  0.81751896     0.34830
H1140       H  0.87441748  0.99292531  0.81288283     0.39930
H1141       H  0.78801766  0.12105268  0.76122470     0.39550
H1142       H  0.82544412  0.13194583  0.75500581     0.34430
C1143       C  0.96114080  0.18496681  0.76289906    -0.27300
C1144       C  0.98871330  0.17305243  0.77989338    -0.15370
C1145       C  0.01416466  0.19412688  0.78177270     0.35260
C1146       C  0.01325244  0.22354325  0.76387470    -0.26740
C1147       C  0.98590508  0.23570914  0.74680771    -0.15980
C1148       C  0.95912798  0.21620515  0.74757871     0.36350
N1149       N  0.92981915  0.22773419  0.73270932    -0.90230
H1150       H  0.94168778  0.16931084  0.75985539     0.17460
H1151       H  0.03408303  0.23780939  0.76428219     0.17450
N1152       N  0.04275674  0.18510682  0.79977116    -0.89260
H1153       H  0.91195814  0.22745222  0.75001709     0.34830
H1154       H  0.92396623  0.21188627  0.71554993     0.39930
H1155       H  0.04021133  0.16362194  0.81302412     0.39550
H1156       H  0.04548989  0.20228443  0.81650657     0.34430
C1157       C  0.16296537  0.99685404  0.75100016    -0.27300
C1158       C  0.14872382  0.02117605  0.76877643    -0.15370
C1159       C  0.16606225  0.04927748  0.77103689     0.35260
C1160       C  0.19432102  0.05357796  0.75353890    -0.26740
C1161       C  0.20906123  0.02922828  0.73623327    -0.15980
C1162       C  0.19334017  0.99994136  0.73607579     0.36350
N1163       N  0.20832944  0.97309843  0.72143981    -0.90230
H1164       H  0.14967433  0.97582421  0.74751402     0.17460
H1165       H  0.20601347  0.07590460  0.75497886     0.17450
N1166       N  0.15437152  0.07507311  0.78958967    -0.89260
H1167       H  0.19365651  0.95371106  0.72326360     0.34830
H1168       H  0.22853530  0.96581283  0.73496746     0.39930
H1169       H  0.13436243  0.06877636  0.80286382     0.39550
H1170       H  0.14729548  0.09424348  0.77383168     0.34430
C1171       C  0.98346420  0.87189879  0.76593916    -0.27300
C1172       C  0.01131042  0.88848323  0.77201278    -0.15370
C1173       C  0.04119593  0.87186549  0.76766667     0.35260
C1174       C  0.04208250  0.84014004  0.75726668    -0.26740
C1175       C  0.01398970  0.82483249  0.74931033    -0.15980
C1176       C  0.98445612  0.84141797  0.75342889     0.36350
N1177       N  0.95548116  0.82811803  0.74293370    -0.90230
H1178       H  0.96030460  0.88421192  0.76823340     0.17460
H1179       H  0.06503988  0.82755573  0.75505868     0.17450
N1180       N  0.07098579  0.88638373  0.77273225    -0.89260
H1181       H  0.93569510  0.84350148  0.74686025     0.34830
H1182       H  0.95205245  0.80715645  0.75661785     0.39930
H1183       H  0.06732221  0.90926032  0.78086581     0.39550
H1184       H  0.08240217  0.88877600  0.75072506     0.34430
C1185       C  0.15908218  0.06559161  0.22697237    -0.27300
C1186       C  0.14528312  0.04273786  0.20842504    -0.15370
C1187       C  0.16437287  0.01450277  0.20405054     0.35260
C1188       C  0.19426280  0.00857403  0.21978088    -0.26740
C1189       C  0.20776626  0.03111284  0.23878357    -0.15980
C1190       C  0.18982182  0.06028906  0.24157702     0.36350
N1191       N  0.20246354  0.08465456  0.25966879    -0.90230
H1192       H  0.14478194  0.08674879  0.23242758     0.17460
H1193       H  0.20708448  0.98591609  0.21704418     0.17450
N1194       N  0.15188477  0.99011934  0.18577352    -0.89260
H1195       H  0.18640399  0.08957168  0.27794386     0.34830
H1196       H  0.20375109  0.10525870  0.24472115     0.39930
H1197       H  0.15061752  0.96940622  0.20058206     0.39550
H1198       H  0.16813033  0.98534521  0.16761395     0.34430
C1199       C  0.02414954  0.86585886  0.23468197    -0.27300
C1200       C  0.99909042  0.88736130  0.22312859    -0.15370
C1201       C  0.96730365  0.87698387  0.22655828     0.35260
C1202       C  0.96212355  0.84641042  0.24135418    -0.26740
C1203       C  0.98752809  0.82611321  0.25386353    -0.15980
C1204       C  0.01876751  0.83640954  0.25047435     0.36350
N1205       N  0.04549203  0.81629692  0.26196464    -0.90230
H1206       H  0.04881130  0.87231275  0.23237002     0.17460
H1207       H  0.93798101  0.83834389  0.24293291     0.17450
N1208       N  0.93973235  0.89615976  0.21565993    -0.89260
H1209       H  0.05805025  0.82843712  0.27856631     0.34830
H1210       H  0.06108265  0.81256688  0.24303358     0.39930
H1211       H  0.94591190  0.91692808  0.20308727     0.39550
H1212       H  0.92695098  0.90285168  0.23573276     0.34430
C1213       C  0.86270654  0.96094548  0.24091989    -0.27300
C1214       C  0.86577329  0.98765405  0.21923237    -0.15370
C1215       C  0.83741357  0.00693681  0.21265146     0.35260
C1216       C  0.80864272  0.00092782  0.22891857    -0.26740
C1217       C  0.80538902  0.97468640  0.25090644    -0.15980
C1218       C  0.83289422  0.95382859  0.25593521     0.36350
N1219       N  0.83094076  0.92630450  0.27748060    -0.90230
H1220       H  0.88409909  0.94674626  0.24789071     0.17460
H1221       H  0.78822457  0.01710307  0.22377213     0.17450
N1222       N  0.83727631  0.03409991  0.19030213    -0.89260
H1223       H  0.85307096  0.91370018  0.27926323     0.34830
H1224       H  0.81496038  0.91115075  0.26766279     0.39930
H1225       H  0.85891594  0.03531519  0.17811486     0.39550
H1226       H  0.83436745  0.05463111  0.20314876     0.34430
C1227       C  0.03077014  0.17420782  0.24040732    -0.27300
C1228       C  0.00358192  0.16694637  0.22280242    -0.15370
C1229       C  0.97868701  0.19094079  0.21911178     0.35260
C1230       C  0.98105376  0.22061380  0.23304792    -0.26740
C1231       C  0.00852656  0.22862123  0.24960225    -0.15980
C1232       C  0.03356988  0.20463253  0.25343679     0.36350
N1233       N  0.06179287  0.21069106  0.27088106    -0.90230
H1234       H  0.04930077  0.15572160  0.24544526     0.17460
H1235       H  0.96136003  0.23821670  0.23022426     0.17450
N1236       N  0.95020399  0.18452252  0.20189622    -0.89260
H1237       H  0.08153620  0.20667748  0.25623297     0.34830
H1238       H  0.06386332  0.19409978  0.29028689     0.39930
H1239       H  0.95676258  0.18128604  0.17828613     0.39550
H1240       H  0.93391095  0.20419400  0.20141747     0.34430
C1241       C  0.96285350  0.30362615  0.64792252    -0.27300
C1242       C  0.99296729  0.31226945  0.63629281    -0.15370
C1243       C  0.01904427  0.30836340  0.65826811     0.35260
C1244       C  0.01573148  0.29228870  0.68823412    -0.26740
C1245       C  0.98611617  0.28254574  0.69981174    -0.15980
C1246       C  0.95904626  0.28999811  0.67957761     0.36350
N1247       N  0.92785907  0.28198278  0.68995639    -0.90230
H1248       H  0.94252451  0.30538857  0.63184222     0.17460
H1249       H  0.03669386  0.28832889  0.70335133     0.17450
N1250       N  0.04967649  0.32061927  0.65079109    -0.89260
H1251       H  0.91910161  0.26592305  0.67434783     0.34830
H1252       H  0.91300593  0.30271399  0.68786930     0.39930
H1253       H  0.04638145  0.34489375  0.64413600     0.39550
H1254       H  0.06010576  0.30887911  0.63195565     0.34430
C1255       C  0.84649829  0.29249411  0.53799759    -0.27300
C1256       C  0.85569272  0.30783080  0.50893842    -0.15370
C1257       C  0.83395691  0.30697142  0.48300460     0.35260
C1258       C  0.80620358  0.28936107  0.48543633    -0.26740
C1259       C  0.79649636  0.27450747  0.51420468    -0.15980
C1260       C  0.81685235  0.27677986  0.54109994     0.36350
N1261       N  0.80782933  0.26259126  0.57131816    -0.90230
H1262       H  0.86319405  0.29108466  0.55778659     0.17460
H1263       H  0.79142335  0.28795501  0.46447231     0.17450
N1264       N  0.84139307  0.32231653  0.45282296    -0.89260
H1265       H  0.82438766  0.26740729  0.58885226     0.34830
H1266       H  0.80931436  0.23790383  0.56933110     0.39930
H1267       H  0.82251965  0.33861125  0.44639366     0.39550
H1268       H  0.84269077  0.30500239  0.43587872     0.34430
C1269       C  0.19041496  0.28447248  0.50692669    -0.27300
C1270       C  0.20188892  0.26476376  0.48308056    -0.15370
C1271       C  0.18226616  0.26278333  0.45582621     0.35260
C1272       C  0.15189983  0.27975867  0.45356984    -0.26740
C1273       C  0.14096985  0.30028492  0.47715922    -0.15980
C1274       C  0.16189803  0.30355192  0.50332866     0.36350
N1275       N  0.15366921  0.32469862  0.52808467    -0.90230
H1276       H  0.20452043  0.28610000  0.52831116     0.17460
H1277       H  0.13578005  0.27527651  0.43430935     0.17450
N1278       N  0.19294694  0.24308298  0.43074155    -0.89260
H1279       H  0.14898829  0.31072767  0.54872803     0.34830
H1280       H  0.13294256  0.33866932  0.52226427     0.39930
H1281       H  0.21337661  0.25287914  0.42081121     0.39550
H1282       H  0.17583022  0.24382422  0.41254513     0.34430
C1283       C  0.98435824  0.30610685  0.33217198    -0.27300
C1284       C  0.01120041  0.30334389  0.35267859    -0.15370
C1285       C  0.03870154  0.28601173  0.34187390     0.35260
C1286       C  0.03836029  0.27218908  0.31173622    -0.26740
C1287       C  0.01082666  0.27393156  0.29207165    -0.15980
C1288       C  0.98334279  0.29055726  0.30327776     0.36350
N1289       N  0.95393464  0.29076323  0.28552201    -0.90230
H1290       H  0.96249926  0.31764223  0.34056939     0.17460
H1291       H  0.05994778  0.25998137  0.30385346     0.17450
N1292       N  0.06686354  0.28066159  0.36139104    -0.89260
H1293       H  0.93577609  0.30383997  0.29672476     0.34830
H1294       H  0.94684152  0.26725926  0.28545021     0.39930
H1295       H  0.06443745  0.29244028  0.38252280     0.39550
H1296       H  0.08572023  0.29103851  0.34907030     0.34430
C1297       C  0.04777611  0.16302958  0.36991185    -0.27300
C1298       C  0.02057024  0.18342125  0.37294808    -0.15370
C1299       C  0.00074121  0.19108579  0.34586662     0.35260
C1300       C  0.00355208  0.17216738  0.32000465    -0.26740
C1301       C  0.02384370  0.14505890  0.32271786    -0.15980
C1302       C  0.05046715  0.14514713  0.34279126     0.36350
N1303       N  0.07909802  0.12705358  0.33544297    -0.90230
H1304       H  0.06541402  0.15979114  0.38885103     0.17460
H1305       H  0.98510202  0.17461939  0.30177009     0.17450
N1306       N  0.97483505  0.21460238  0.34610174    -0.89260
H1307       H  0.09767483  0.13362649  0.34999910     0.34830
H1308       H  0.08576008  0.13433891  0.31233557     0.39930
H1309       H  0.95342351  0.20307423  0.34392444     0.39550
H1310       H  0.97691524  0.22997597  0.32601645     0.34430
C1311       C  0.93675719  0.18069185  0.65303288    -0.27300
C1312       C  0.96669448  0.17445678  0.66778627    -0.15370
C1313       C  0.98705926  0.20006968  0.67120264     0.35260
C1314       C  0.98021379  0.22789435  0.65270125    -0.26740
C1315       C  0.95942250  0.22582838  0.62708364    -0.15980
C1316       C  0.93252755  0.20849866  0.63325212     0.36350
N1317       N  0.90191835  0.22094100  0.62196755    -0.90230
H1318       H  0.91772502  0.16470976  0.65701322     0.17460
H1319       H  0.99874861  0.24485868  0.65065077     0.17450
N1320       N  0.01720586  0.19597797  0.68782479    -0.89260
H1321       H  0.88408206  0.20594859  0.62992948     0.34830
H1322       H  0.90225267  0.22220135  0.59709795     0.39930
H1323       H  0.01252358  0.19023859  0.71168726     0.39550
H1324       H  0.02917022  0.21727118  0.68720742     0.34430
C1325       C  0.26943232  0.04449060  0.63646089    -0.27300
C1326       C  0.28388075  0.01418851  0.63089827    -0.15370
C1327       C  0.28498701  0.99110897  0.65696816     0.35260
C1328       C  0.26916814  0.99710246  0.68552554    -0.26740
C1329       C  0.25465169  0.02691655  0.69152149    -0.15980
C1330       C  0.25543906  0.05120992  0.66665448     0.36350
N1331       N  0.24040450  0.08198887  0.67143902    -0.90230
H1332       H  0.26748241  0.06234482  0.61689833     0.17460
H1333       H  0.27006294  0.97831540  0.70408828     0.17450
N1334       N  0.30257432  0.96100651  0.65559723    -0.89260
H1335       H  0.24251320  0.09706018  0.65101634     0.34830
H1336       H  0.25278847  0.09216255  0.68959083     0.39930
H1337       H  0.31912424  0.96132104  0.63707083     0.39550
H1338       H  0.28625679  0.94351936  0.65183773     0.34430
C1339       C  0.25517090  0.16673866  0.52203494    -0.27300
C1340       C  0.27337546  0.15106328  0.49867864    -0.15370
C1341       C  0.27722171  0.16865637  0.46910085     0.35260
C1342       C  0.26309969  0.20005434  0.46394170    -0.26740
C1343       C  0.24542321  0.21568789  0.48761821    -0.15980
C1344       C  0.24154055  0.19828148  0.51689521     0.36350
N1345       N  0.22380132  0.21272719  0.54180226    -0.90230
H1346       H  0.24987348  0.15359354  0.54413166     0.17460
H1347       H  0.26640828  0.21260603  0.44111066     0.17450
N1348       N  0.29412403  0.15492754  0.44310376    -0.89260
H1349       H  0.23847410  0.21239428  0.56197071     0.34830
H1350       H  0.20441047  0.19875674  0.54732693     0.39930
H1351       H  0.30409770  0.13231335  0.44985130     0.39550
H1352       H  0.31337253  0.16917510  0.43764142     0.34430
C1353       C  0.28654848  0.81856727  0.47295579    -0.27300
C1354       C  0.27297075  0.81134890  0.44390114    -0.15370
C1355       C  0.27450167  0.83509316  0.41849837     0.35260
C1356       C  0.28595698  0.86599802  0.42424369    -0.26740
C1357       C  0.30064168  0.87213577  0.45346123    -0.15980
C1358       C  0.30384219  0.84586688  0.47628542     0.36350
N1359       N  0.32365708  0.84673137  0.50413433    -0.90230
H1360       H  0.28488300  0.80201268  0.49331975     0.17460
H1361       H  0.28252227  0.88536291  0.40631381     0.17450
N1362       N  0.26400463  0.82814320  0.38727968    -0.89260
H1363       H  0.31533745  0.86429198  0.51901238     0.34830
H1364       H  0.34675833  0.85184152  0.49676602     0.39930
H1365       H  0.27914375  0.80969956  0.37946281     0.39550
H1366       H  0.26667556  0.84782796  0.37137520     0.34430
C1367       C  0.25664461  0.99604431  0.33961565    -0.27300
C1368       C  0.26642981  0.02353119  0.35384158    -0.15370
C1369       C  0.26767200  0.05189148  0.33429513     0.35260
C1370       C  0.25952067  0.05235159  0.30155275    -0.26740
C1371       C  0.24875304  0.02515110  0.28747840    -0.15980
C1372       C  0.24710812  0.99683160  0.30711752     0.36350
N1373       N  0.23452697  0.96903859  0.29448031    -0.90230
H1374       H  0.25413429  0.97434176  0.35434815     0.17460
H1375       H  0.26131751  0.07432345  0.28712783     0.17450
N1376       N  0.27679920  0.08063242  0.34784084    -0.89260
H1377       H  0.21377772  0.96379656  0.30705014     0.34830
H1378       H  0.25099733  0.94985075  0.29906804     0.39930
H1379       H  0.25804518  0.09778918  0.34416092     0.39550
H1380       H  0.29671220  0.08872989  0.33544688     0.34430
C1381       C  0.13981519  0.16082743  0.53107201    -0.27300
C1382       C  0.12154131  0.15629114  0.50368184    -0.15370
C1383       C  0.11574294  0.12530248  0.49529231     0.35260
C1384       C  0.12028683  0.10052959  0.51807704    -0.26740
C1385       C  0.13881941  0.10452665  0.54540698    -0.15980
C1386       C  0.14839752  0.13497566  0.55205303     0.36350
N1387       N  0.16827095  0.13908582  0.57914187    -0.90230
H1388       H  0.14528534  0.18458507  0.53752527     0.17460
H1389       H  0.11481612  0.07683584  0.51131997     0.17450
N1390       N  0.10376452  0.11877816  0.46438416    -0.89260
H1391       H  0.15680049  0.15597636  0.59307758     0.34830
H1392       H  0.18973201  0.14822119  0.57104427     0.39930
H1393       H  0.10290726  0.13939562  0.44923664     0.39550
H1394       H  0.08046627  0.11118519  0.46700922     0.34430
C1395       C  0.11434222  0.03400601  0.40130219    -0.27300
C1396       C  0.13558045  0.00877263  0.39394802    -0.15370
C1397       C  0.15160370  0.00976782  0.36432669     0.35260
C1398       C  0.14592476  0.03615371  0.34314411    -0.26740
C1399       C  0.11893317  0.05601345  0.34819505    -0.15980
C1400       C  0.10995822  0.06006794  0.37989756     0.36350
N1401       N  0.08994668  0.08673090  0.38834503    -0.90230
H1402       H  0.10491113  0.03577972  0.42520047     0.17460
H1403       H  0.15678671  0.03604553  0.31976402     0.17450
N1404       N  0.17543116  0.98583253  0.35652076    -0.89260
H1405       H  0.10139608  0.09764732  0.40660405     0.34830
H1406       H  0.06833501  0.07853397  0.39718706     0.39930
H1407       H  0.17688467  0.96713392  0.37394338     0.39550
H1408       H  0.19725873  0.99666717  0.35677471     0.34430
C1409       C  0.13383202  0.98767502  0.66561675    -0.27300
C1410       C  0.13359577  0.01926347  0.65353169    -0.15370
C1411       C  0.16282759  0.03327617  0.64626643     0.35260
C1412       C  0.19020924  0.01307428  0.64474015    -0.26740
C1413       C  0.18718859  0.97994290  0.64679407    -0.15980
C1414       C  0.16118618  0.96783866  0.66311912     0.36350
N1415       N  0.16036692  0.93430019  0.67062968    -0.90230
H1416       H  0.11255958  0.97868508  0.67617927     0.17460
H1417       H  0.21100196  0.02260662  0.63336014     0.17450
N1418       N  0.16535351  0.06688362  0.63877240    -0.89260
H1419       H  0.14305449  0.92539799  0.65613196     0.34830
H1420       H  0.15314783  0.93089453  0.69427863     0.39930
H1421       H  0.14312606  0.07918122  0.63903085     0.39550
H1422       H  0.17386966  0.06970522  0.61552996     0.34430
C1423       C  0.74215773  0.17294578  0.53357919    -0.27300
C1424       C  0.73880413  0.16238226  0.50246947    -0.15370
C1425       C  0.74273193  0.18553932  0.47689216     0.35260
C1426       C  0.75419032  0.21561714  0.48240742    -0.26740
C1427       C  0.75686651  0.22673744  0.51295673    -0.15980
C1428       C  0.74972603  0.20515036  0.53889155     0.36350
N1429       N  0.75049570  0.21556553  0.57065416    -0.90230
H1430       H  0.73951088  0.15618433  0.55378147     0.17460
H1431       H  0.76088681  0.23072445  0.46219485     0.17450
N1432       N  0.73460290  0.17963707  0.44464669    -0.89260
H1433       H  0.76687492  0.20051858  0.58378974     0.34830
H1434       H  0.72790361  0.21266888  0.58059548     0.39930
H1435       H  0.71144758  0.17141005  0.44421469     0.39550
H1436       H  0.75052838  0.16269707  0.43551751     0.34430
C1437       C  0.74570473  0.01502537  0.33720651    -0.27300
C1438       C  0.73686400  0.99189138  0.36121848    -0.15370
C1439       C  0.73998818  0.95950263  0.35272861     0.35260
C1440       C  0.75184071  0.95194694  0.32182292    -0.26740
C1441       C  0.76322482  0.97539629  0.29939651    -0.15980
C1442       C  0.76025685  0.00739856  0.30806376     0.36350
N1443       N  0.77246662  0.03243562  0.28747215    -0.90230
H1444       H  0.74330575  0.04005754  0.34210247     0.17460
H1445       H  0.75280507  0.92729038  0.31550174     0.17450
N1446       N  0.73204505  0.93367353  0.37454228    -0.89260
H1447       H  0.77007655  0.05441438  0.29791874     0.34830
H1448       H  0.75880304  0.03474864  0.26665355     0.39930
H1449       H  0.72302881  0.94211110  0.39572944     0.39550
H1450       H  0.75320385  0.92033421  0.38024339     0.34430
C1451       C  0.75095796  0.07241711  0.65238447    -0.27300
C1452       C  0.74310470  0.04185918  0.64341091    -0.15370
C1453       C  0.74362527  0.01736681  0.66835553     0.35260
C1454       C  0.75230138  0.02343352  0.70000498    -0.26740
C1455       C  0.76064798  0.05375333  0.70908184    -0.15980
C1456       C  0.75928290  0.07860553  0.68448407     0.36350
N1457       N  0.76671494  0.11033805  0.69156509    -0.90230
H1458       H  0.75225552  0.09144671  0.63405969     0.17460
H1459       H  0.75265201  0.00386747  0.71789784     0.17450
N1460       N  0.73553063  0.98551992  0.66223901    -0.89260
H1461       H  0.74689201  0.12546470  0.68527094     0.34830
H1462       H  0.78535128  0.11737176  0.67671300     0.39930
H1463       H  0.75208355  0.97580440  0.64652753     0.39550
H1464       H  0.71288098  0.98652046  0.65161629     0.34430
C1465       C  0.73726538  0.86224185  0.53807523    -0.27300
C1466       C  0.74072501  0.87995606  0.50901566    -0.15370
C1467       C  0.76083747  0.86641604  0.48573956     0.35260
C1468       C  0.77796121  0.83701292  0.49272213    -0.26740
C1469       C  0.77591401  0.82041657  0.52260716    -0.15980
C1470       C  0.75587701  0.83399005  0.54573869     0.36350
N1471       N  0.75473822  0.81908483  0.57723962    -0.90230
H1472       H  0.72330408  0.87293789  0.55673454     0.17460
H1473       H  0.79215632  0.82669460  0.47412985     0.17450
N1474       N  0.76574843  0.88278834  0.45536555    -0.89260
H1475       H  0.73753356  0.83078647  0.59094880     0.34830
H1476       H  0.77676153  0.82220510  0.58802324     0.39930
H1477       H  0.75118610  0.90367695  0.45289910     0.39550
H1478       H  0.75819191  0.86811853  0.43781487     0.34430
C1479       C  0.84206356  0.20280713  0.50832528    -0.27300
C1480       C  0.86464932  0.19914405  0.53298350    -0.15370
C1481       C  0.86356446  0.17173056  0.55305501     0.35260
C1482       C  0.85250191  0.14430483  0.54048047    -0.26740
C1483       C  0.84382666  0.14546185  0.50836249    -0.15980
C1484       C  0.83528902  0.17534647  0.49279332     0.36350
N1485       N  0.82421172  0.17779882  0.46036211    -0.90230
H1486       H  0.83892083  0.22564856  0.49523205     0.17460
H1487       H  0.85294762  0.12208544  0.55447663     0.17450
N1488       N  0.87913797  0.17034937  0.58317603    -0.89260
H1489       H  0.82077916  0.20170213  0.45229498     0.34830
H1490       H  0.80182419  0.16810338  0.45988554     0.39930
H1491       H  0.89890963  0.15434433  0.58243651     0.39550
H1492       H  0.86289654  0.16229622  0.60023271     0.34430
C1493       C  0.88709223  0.94397916  0.35638261    -0.27300
C1494       C  0.87960594  0.96962243  0.33417992    -0.15370
C1495       C  0.84730761  0.98035081  0.32980184     0.35260
C1496       C  0.82494204  0.96818800  0.35091740    -0.26740
C1497       C  0.83636050  0.95491963  0.38010445    -0.15980
C1498       C  0.86482743  0.93618547  0.37982182     0.36350
N1499       N  0.87352957  0.91470495  0.40635475    -0.90230
H1500       H  0.91135451  0.93406947  0.35909475     0.17460
H1501       H  0.80168367  0.98001213  0.35040084     0.17450
N1502       N  0.83766681  0.00801562  0.31001910    -0.89260
H1503       H  0.89420809  0.92256128  0.41680815     0.34830
H1504       H  0.87919796  0.89235812  0.39755508     0.39930
H1505       H  0.84661363  0.00570432  0.28715194     0.39550
H1506       H  0.84703758  0.02805992  0.31953309     0.34430
C1507       C  0.88577578  0.11014621  0.63210192    -0.27300
C1508       C  0.87910645  0.09389178  0.66105732    -0.15370
C1509       C  0.84983677  0.07924448  0.66212271     0.35260
C1510       C  0.83906651  0.06690363  0.63437197    -0.26740
C1511       C  0.85857936  0.06933952  0.60718297    -0.15980
C1512       C  0.88216932  0.09227903  0.60550375     0.36350
N1513       N  0.90748627  0.09210819  0.58249435    -0.90230
H1514       H  0.90590939  0.12511838  0.63125920     0.17460
H1515       H  0.81882407  0.05177499  0.63560201     0.17450
N1516       N  0.83427453  0.07195498  0.69135665    -0.89260
H1517       H  0.89853522  0.09628429  0.55946876     0.34830
H1518       H  0.91952464  0.06969489  0.58410287     0.39930
H1519       H  0.83086126  0.09376947  0.70157398     0.39550
H1520       H  0.84955854  0.05748551  0.70620249     0.34430
C1521       C  0.20839987  0.78516863  0.46839832    -0.27300
C1522       C  0.22457184  0.77274336  0.44271506    -0.15370
C1523       C  0.20754107  0.75220391  0.42339864     0.35260
C1524       C  0.17550855  0.74386652  0.43132111    -0.26740
C1525       C  0.16021090  0.75473908  0.45881084    -0.15980
C1526       C  0.17808547  0.77549482  0.47758618     0.36350
N1527       N  0.16634945  0.78629382  0.50740372    -0.90230
H1528       H  0.22075972  0.80042199  0.48380112     0.17460
H1529       H  0.16326700  0.72764870  0.41692361     0.17450
N1530       N  0.22279039  0.74002723  0.39575919    -0.89260
H1531       H  0.16664422  0.81119630  0.50678128     0.34830
H1532       H  0.18213524  0.77741473  0.52542889     0.39930
H1533       H  0.22720143  0.75945557  0.38006700     0.39550
H1534       H  0.20743875  0.72564532  0.38398861     0.34430
C1535       C  0.96416511  0.78652256  0.35496569    -0.27300
C1536       C  0.99123248  0.76965213  0.36897239    -0.15370
C1537       C  0.01586789  0.75952337  0.34772711     0.35260
C1538       C  0.01228399  0.76638301  0.31439356    -0.26740
C1539       C  0.98528129  0.78354932  0.30100339    -0.15980
C1540       C  0.96105167  0.79362057  0.32180260     0.36350
N1541       N  0.93327468  0.81146017  0.30916802    -0.90230
H1542       H  0.94505675  0.79482803  0.37018481     0.17460
H1543       H  0.03140925  0.75888971  0.29879655     0.17450
N1544       N  0.04523589  0.74319617  0.35836915    -0.89260
H1545       H  0.91764971  0.81751765  0.32744740     0.34830
H1546       H  0.92102266  0.79667758  0.29467448     0.39930
H1547       H  0.04647094  0.73958450  0.38293294     0.39550
H1548       H  0.06391360  0.75784615  0.35193251     0.34430
C1549       C  0.05570658  0.76494334  0.66357155    -0.27300
C1550       C  0.03035414  0.75718706  0.64343458    -0.15370
C1551       C  0.99875395  0.76121898  0.65586149     0.35260
C1552       C  0.99411099  0.77314539  0.68671103    -0.26740
C1553       C  0.01979389  0.78142994  0.70601213    -0.15980
C1554       C  0.05079407  0.77700907  0.69389366     0.36350
N1555       N  0.07776346  0.78456080  0.71251808    -0.90230
H1556       H  0.08015618  0.76238591  0.65539340     0.17460
H1557       H  0.97002705  0.77586946  0.69577237     0.17450
N1558       N  0.97072545  0.75400562  0.63842008    -0.89260
H1559       H  0.09028512  0.80178676  0.69950090     0.34830
H1560       H  0.09274505  0.76400640  0.71576051     0.39930
H1561       H  0.97628458  0.74373835  0.61710513     0.39550
H1562       H  0.95781590  0.77550203  0.63279523     0.34430
C1563       C  0.84195226  0.77667804  0.50135855    -0.27300
C1564       C  0.82297257  0.77580387  0.52885241    -0.15370
C1565       C  0.83650225  0.76044408  0.55697586     0.35260
C1566       C  0.86853721  0.74769382  0.55720450    -0.26740
C1567       C  0.88753712  0.74885883  0.52970869    -0.15980
C1568       C  0.87334617  0.76264104  0.50124373     0.36350
N1569       N  0.89208385  0.76459459  0.47266977    -0.90230
H1570       H  0.83222330  0.78796215  0.47953178     0.17460
H1571       H  0.87945889  0.73884306  0.57955119     0.17450
N1572       N  0.81789737  0.75854981  0.58556554    -0.89260
H1573       H  0.87874173  0.77588470  0.45387100     0.34830
H1574       H  0.89752509  0.74127128  0.46628053     0.39930
H1575       H  0.81481739  0.78165905  0.59328381     0.39550
H1576       H  0.83051694  0.74523520  0.60364233     0.34430
C1577       C  0.91632457  0.87441252  0.59624725    -0.27300
C1578       C  0.94583268  0.88879765  0.59303538    -0.15370
C1579       C  0.94395265  0.92154048  0.58520005     0.35260
C1580       C  0.92096685  0.93236056  0.56248727    -0.26740
C1581       C  0.89742081  0.91160547  0.55361875    -0.15980
C1582       C  0.89282231  0.88364649  0.57307572     0.36350
N1583       N  0.86606440  0.86429248  0.56806207    -0.90230
H1584       H  0.91547674  0.85122396  0.60873087     0.17460
H1585       H  0.92176266  0.95630178  0.55165780     0.17450
N1586       N  0.96908996  0.94116891  0.59423870    -0.89260
H1587       H  0.86678866  0.84451370  0.58429957     0.34830
H1588       H  0.86840709  0.85539503  0.54541135     0.39930
H1589       H  0.96654564  0.94369525  0.61863426     0.39550
H1590       H  0.96567887  0.96410028  0.58345380     0.34430
C1591       C  0.18722734  0.85593331  0.43589507    -0.27300
C1592       C  0.17419698  0.88647408  0.44172767    -0.15370
C1593       C  0.14807809  0.89849319  0.42185150     0.35260
C1594       C  0.13179946  0.87721781  0.40378665    -0.26740
C1595       C  0.13632449  0.84517014  0.41360934    -0.15980
C1596       C  0.16870458  0.83621021  0.41768668     0.36350
N1597       N  0.18300039  0.81367658  0.39714332    -0.90230
H1598       H  0.21079843  0.84818428  0.44456781     0.17460
H1599       H  0.10965466  0.88553773  0.39199346     0.17450
N1600       N  0.13604645  0.93073805  0.42203983    -0.89260
H1601       H  0.20764499  0.81572224  0.39743119     0.34830
H1602       H  0.17599373  0.82048673  0.37377421     0.39930
H1603       H  0.11257530  0.93073210  0.43047249     0.39550
H1604       H  0.13504671  0.93990885  0.39845059     0.34430
C1605       C  0.01730655  0.86513550  0.32678508    -0.27300
C1606       C  0.99071063  0.88396158  0.31572587    -0.15370
C1607       C  0.96205550  0.88041705  0.33192777     0.35260
C1608       C  0.96425668  0.87472718  0.36483955    -0.26740
C1609       C  0.99468707  0.86840652  0.37886334    -0.15980
C1610       C  0.02059194  0.85886551  0.35952014     0.36350
N1611       N  0.05011321  0.84412178  0.37186184    -0.90230
H1612       H  0.03861372  0.86354696  0.31243462     0.17460
H1613       H  0.94303843  0.87729706  0.37934857     0.17450
N1614       N  0.93208155  0.88792893  0.31594820    -0.89260
H1615       H  0.05371411  0.82244036  0.36103111     0.34830
H1616       H  0.04840749  0.83789510  0.39610001     0.39930
H1617       H  0.93126261  0.91201963  0.30819745     0.39550
H1618       H  0.91316257  0.88458473  0.33174411     0.34430
C1619       C  0.08346953  0.88670362  0.64571024    -0.27300
C1620       C  0.06717077  0.86397849  0.63020515    -0.15370
C1621       C  0.03447596  0.86019148  0.63675492     0.35260
C1622       C  0.01696121  0.88521364  0.64984152    -0.26740
C1623       C  0.03273433  0.91203257  0.65823010    -0.15980
C1624       C  0.06618379  0.91027471  0.66125575     0.36350
N1625       N  0.08282164  0.93200010  0.67950290    -0.90230
H1626       H  0.10902360  0.88799101  0.64284388     0.17460
H1627       H  0.99111719  0.88488785  0.65081065     0.17450
N1628       N  0.01832669  0.83273476  0.62770703    -0.89260
H1629       H  0.09540347  0.91845345  0.69743732     0.34830
H1630       H  0.06684351  0.94700351  0.69138741     0.39930
H1631       H  0.03413644  0.81726057  0.61636515     0.39550
H1632       H  0.00066397  0.84002132  0.61112690     0.34430
C1633       C  0.75197596  0.21674782  0.04716383    -0.27300
C1634       C  0.74509234  0.23091730  0.01693680    -0.15370
C1635       C  0.75045392  0.21197314  0.99030938     0.35260
C1636       C  0.76183284  0.17938843  0.99473897    -0.26740
C1637       C  0.76805734  0.16497005  0.02533512    -0.15980
C1638       C  0.76313210  0.18474716  0.05174565     0.36350
N1639       N  0.76984781  0.17349172  0.08396399    -0.90230
H1640       H  0.74903789  0.23102137  0.06773962     0.17460
H1641       H  0.76505674  0.16505438  0.97426848     0.17450
N1642       N  0.74482924  0.22598652  0.95878985    -0.89260
H1643       H  0.79288078  0.16273584  0.08528120     0.34830
H1644       H  0.75296627  0.15726483  0.09151212     0.39930
H1645       H  0.72028314  0.23142575  0.95652861     0.39550
H1646       H  0.75066673  0.20946095  0.94179031     0.34430
C1647       C  0.75768376  0.88346106  0.94169241    -0.27300
C1648       C  0.76591958  0.89521835  0.97131452    -0.15370
C1649       C  0.76781962  0.87277515  0.99804293     0.35260
C1650       C  0.76187159  0.84024460  0.99409773    -0.26740
C1651       C  0.75420311  0.82863330  0.96428927    -0.15980
C1652       C  0.75176262  0.85094802  0.93806695     0.36350
N1653       N  0.74237412  0.84086066  0.90762699    -0.90230
H1654       H  0.75500956  0.89995183  0.92102115     0.17460
H1655       H  0.76205042  0.82410047  0.01502832     0.17450
N1656       N  0.77341428  0.88193592  0.02991741    -0.89260
H1657       H  0.76017704  0.84672363  0.89125668     0.34830
H1658       H  0.72135571  0.85385219  0.90066441     0.39930
H1659       H  0.77494555  0.90645449  0.03117047     0.39550
H1660       H  0.79541498  0.87131960  0.03751243     0.34430
C1661       C  0.76120627  0.02773608  0.82116433    -0.27300
C1662       C  0.75245026  0.05642693  0.80333736    -0.15370
C1663       C  0.75528248  0.08526059  0.81939975     0.35260
C1664       C  0.76680024  0.08451744  0.85114713    -0.26740
C1665       C  0.77587114  0.05608939  0.86873548    -0.15980
C1666       C  0.77245025  0.02728274  0.85316286     0.36350
N1667       N  0.77881284  0.99700006  0.86983152    -0.90230
H1668       H  0.75931259  0.00523816  0.81012629     0.17460
H1669       H  0.76663584  0.10674522  0.86307991     0.17450
N1670       N  0.74446102  0.11581704  0.80548548    -0.89260
H1671       H  0.80243290  0.99610363  0.87806152     0.34830
H1672       H  0.76372042  0.99537195  0.88954966     0.39930
H1673       H  0.73913677  0.11436058  0.78154553     0.39550
H1674       H  0.76317628  0.13128416  0.80675075     0.34430
C1675       C  0.77783693  0.94031296  0.19474679    -0.27300
C1676       C  0.75500511  0.96192374  0.20830960    -0.15370
C1677       C  0.74428087  0.98842903  0.18867069     0.35260
C1678       C  0.75712814  0.99381466  0.15804462    -0.26740
C1679       C  0.77886433  0.97208072  0.14331457    -0.15980
C1680       C  0.78940824  0.94476205  0.16271121     0.36350
N1681       N  0.81270857  0.92191168  0.15150747    -0.90230
H1682       H  0.78734288  0.92010184  0.20948247     0.17460
H1683       H  0.74942752  0.01595796  0.14525611     0.17450
N1684       N  0.72187512  0.01162949  0.20055609    -0.89260
H1685       H  0.83328461  0.92295695  0.16547308     0.34830
H1686       H  0.81914692  0.92793218  0.12805246     0.39930
H1687       H  0.70204906  0.01362495  0.18528962     0.39550
H1688       H  0.73249724  0.03366618  0.19982211     0.34430
C1689       C  0.22802726  0.86396384  0.97947102    -0.27300
C1690       C  0.22643917  0.87893010  0.00868252    -0.15370
C1691       C  0.23951105  0.86140272  0.03581248     0.35260
C1692       C  0.25435314  0.83066328  0.03286554    -0.26740
C1693       C  0.25816680  0.81704871  0.00302902    -0.15980
C1694       C  0.24522702  0.83468731  0.97615544     0.36350
N1695       N  0.25037117  0.82331007  0.94503896    -0.90230
H1696       H  0.21985047  0.87735592  0.95795338     0.17460
H1697       H  0.26217947  0.81728278  0.05431301     0.17450
N1698       N  0.23844644  0.87437382  0.06670371    -0.89260
H1699       H  0.26361071  0.84000437  0.93210769     0.34830
H1700       H  0.22817280  0.82287750  0.93377831     0.39930
H1701       H  0.22612860  0.89663243  0.06577924     0.39550
H1702       H  0.26190954  0.87791089  0.07372122     0.34430
C1703       C  0.23462167  0.21366518  0.92771166    -0.27300
C1704       C  0.25629639  0.22654545  0.94948910    -0.15370
C1705       C  0.26775320  0.20515931  0.97437837     0.35260
C1706       C  0.25563779  0.17464437  0.97892694    -0.26740
C1707       C  0.23247682  0.16180869  0.95901528    -0.15980
C1708       C  0.22254827  0.18209001  0.93218123     0.36350
N1709       N  0.19927561  0.17250960  0.90999229    -0.90230
H1710       H  0.22515513  0.22913462  0.90813842     0.17460
H1711       H  0.26455144  0.16101091  0.99993008     0.17450
N1712       N  0.28962621  0.21438688  0.99798433    -0.89260
H1713       H  0.17903461  0.18787981  0.91165374     0.34830
H1714       H  0.19209462  0.14957113  0.91622729     0.39930
H1715       H  0.27758396  0.22965077  0.01299389     0.39550
H1716       H  0.30868927  0.22557570  0.98692686     0.34430
C1717       C  0.24451496  0.00648055  0.79514099    -0.27300
C1718       C  0.25692578  0.03545699  0.78369192    -0.15370
C1719       C  0.25466809  0.06116087  0.80423436     0.35260
C1720       C  0.24198380  0.05680403  0.83565783    -0.26740
C1721       C  0.22957068  0.02754214  0.84671830    -0.15980
C1722       C  0.22975550  0.00278749  0.82519573     0.36350
N1723       N  0.21630080  0.97294355  0.83481700    -0.90230
H1724       H  0.24597641  0.98644793  0.78013583     0.17460
H1725       H  0.24320563  0.07589536  0.85182700     0.17450
N1726       N  0.26544829  0.09164695  0.79347587    -0.89260
H1727       H  0.21847732  0.95695069  0.81668017     0.34830
H1728       H  0.19180525  0.97748464  0.83814528     0.39930
H1729       H  0.28322881  0.09788195  0.80913488     0.39550
H1730       H  0.24623533  0.10833514  0.79480727     0.34430
C1731       C  0.24778910  0.99032490  0.14761580    -0.27300
C1732       C  0.23217306  0.01742152  0.13221133    -0.15370
C1733       C  0.23049291  0.04566472  0.14934065     0.35260
C1734       C  0.24512132  0.04690773  0.17955891    -0.26740
C1735       C  0.26021168  0.01988464  0.19538061    -0.15980
C1736       C  0.26083636  0.99109220  0.17901972     0.36350
N1737       N  0.27419658  0.96227573  0.19429995    -0.90230
H1738       H  0.25100793  0.96872661  0.13484495     0.17460
H1739       H  0.24325224  0.06908126  0.19156359     0.17450
N1740       N  0.21475458  0.07404987  0.13524642    -0.89260
H1741       H  0.29268545  0.95354131  0.18005444     0.34830
H1742       H  0.25646769  0.94557448  0.19545001     0.39930
H1743       H  0.23132384  0.09189263  0.13353787     0.39550
H1744       H  0.19658005  0.08134439  0.15061594     0.34430
C1745       C  0.47652373  0.19848960  0.24543407    -0.27300
C1746       C  0.50252849  0.21520795  0.23260144    -0.15370
C1747       C  0.53334624  0.20085410  0.23722198     0.35260
C1748       C  0.53744158  0.17050600  0.25304680    -0.26740
C1749       C  0.51161783  0.15193739  0.26328806    -0.15980
C1750       C  0.48046643  0.16718372  0.26045795     0.36350
N1751       N  0.45227142  0.15194434  0.27148080    -0.90230
H1752       H  0.45276450  0.20983131  0.24365212     0.17460
H1753       H  0.56168721  0.16063576  0.25607487     0.17450
N1754       N  0.56083474  0.21772529  0.22685014    -0.89260
H1755       H  0.44146135  0.16630312  0.28831536     0.34830
H1756       H  0.45799470  0.13015168  0.28355937     0.39930
H1757       H  0.56070849  0.21890821  0.20203765     0.39550
H1758       H  0.58197550  0.20500106  0.23387174     0.34430
C1759       C  0.46739897  0.85802615  0.25883744    -0.27300
C1760       C  0.49501975  0.87588646  0.25772939    -0.15370
C1761       C  0.52436901  0.86008529  0.25009859     0.35260
C1762       C  0.52521949  0.82764713  0.24283629    -0.26740
C1763       C  0.49740313  0.81002989  0.24324059    -0.15980
C1764       C  0.46844924  0.82541583  0.25209169     0.36350
N1765       N  0.43981190  0.80816740  0.25345102    -0.90230
H1766       H  0.44453227  0.86980200  0.26388412     0.17460
H1767       H  0.54758404  0.81648501  0.23539324     0.17450
N1768       N  0.55332573  0.87683346  0.24780770    -0.89260
H1769       H  0.43059547  0.80922820  0.27646042     0.34830
H1770       H  0.42321029  0.81980224  0.23765393     0.39930
H1771       H  0.55771575  0.88606910  0.26988218     0.39550
H1772       H  0.54999104  0.89593825  0.23096166     0.34430
C1773       C  0.35239894  0.99962898  0.26815666    -0.27300
C1774       C  0.36546369  0.02972949  0.27121635    -0.15370
C1775       C  0.34522863  0.05680007  0.26170006     0.35260
C1776       C  0.31449968  0.05314437  0.24816591    -0.26740
C1777       C  0.30214221  0.02301553  0.24371400    -0.15980
C1778       C  0.32153384  0.99595518  0.25467532     0.36350
N1779       N  0.31078202  0.96455790  0.25057904    -0.90230
H1780       H  0.36773223  0.97850131  0.27356724     0.17460
H1781       H  0.30007998  0.07436466  0.24074809     0.17450
N1782       N  0.35590766  0.08860746  0.26377557    -0.89260
H1783       H  0.32775871  0.94717542  0.25930821     0.34830
H1784       H  0.29038817  0.96180190  0.26432992     0.39930
H1785       H  0.37834119  0.08825771  0.27475368     0.39550
H1786       H  0.34014754  0.10055901  0.27880886     0.34430
C1787       C  0.66145081  0.93833946  0.27250843    -0.27300
C1788       C  0.64871007  0.96728235  0.28405474    -0.15370
C1789       C  0.67030145  0.99243479  0.28474063     0.35260
C1790       C  0.69967028  0.99054554  0.26854859    -0.26740
C1791       C  0.71262602  0.96212607  0.25657751    -0.15980
C1792       C  0.69358984  0.93510233  0.26086932     0.36350
N1793       N  0.70666891  0.90425021  0.25382195    -0.90230
H1794       H  0.64602793  0.91850157  0.27116095     0.17460
H1795       H  0.71283067  0.01187616  0.26596565     0.17450
N1796       N  0.66144170  0.02197642  0.29886578    -0.89260
H1797       H  0.69115158  0.89436339  0.23798598     0.34830
H1798       H  0.70685448  0.88989387  0.27492581     0.39930
H1799       H  0.63983546  0.02039930  0.31108853     0.39550
H1800       H  0.65821727  0.03971506  0.28055538     0.34430
C1801       C  0.41396647  0.11230612  0.10637635    -0.27300
C1802       C  0.40909658  0.10457032  0.13869478    -0.15370
C1803       C  0.37809412  0.09717027  0.14828760     0.35260
C1804       C  0.35930311  0.08228421  0.12671117    -0.26740
C1805       C  0.37052296  0.07880409  0.09565511    -0.15980
C1806       C  0.39603200  0.09689856  0.08428141     0.36350
N1807       N  0.40405919  0.09867965  0.05105576    -0.90230
H1808       H  0.43596189  0.12293337  0.09881298     0.17460
H1809       H  0.33741936  0.07167126  0.13469367     0.17450
N1810       N  0.36911661  0.09781465  0.18110385    -0.89260
H1811       H  0.42367934  0.11281950  0.04705946     0.34830
H1812       H  0.38475319  0.11033351  0.03873778     0.39930
H1813       H  0.36466741  0.07455775  0.18949757     0.39550
H1814       H  0.34764060  0.11143152  0.18227498     0.34430
C1815       C  0.66365573  0.94960934  0.16836401    -0.27300
C1816       C  0.63517018  0.95600869  0.15067902    -0.15370
C1817       C  0.63077325  0.93828011  0.12304610     0.35260
C1818       C  0.65713718  0.92059027  0.11161320    -0.26740
C1819       C  0.68726288  0.92980541  0.12117085    -0.15980
C1820       C  0.68925901  0.93310159  0.15383178     0.36350
N1821       N  0.71627622  0.91949896  0.17119639    -0.90230
H1822       H  0.66629556  0.95798952  0.19208617     0.17460
H1823       H  0.65461819  0.91080788  0.08857606     0.17450
N1824       N  0.60257671  0.94125735  0.10354477    -0.89260
H1825       H  0.71720581  0.89493601  0.16826721     0.34830
H1826       H  0.71228373  0.92215711  0.19529364     0.39930
H1827       H  0.60000673  0.96453812  0.09351222     0.39550
H1828       H  0.58271255  0.93613596  0.11736162     0.34430
C1829       C  0.65751528  0.30859102  0.98349817    -0.27300
C1830       C  0.63631413  0.30248960  0.00882949    -0.15370
C1831       C  0.64937787  0.28610076  0.03672026     0.35260
C1832       C  0.68199592  0.27512520  0.03775100    -0.26740
C1833       C  0.70255408  0.27954326  0.01154397    -0.15980
C1834       C  0.68975558  0.29695114  0.98405866     0.36350
N1835       N  0.70765474  0.30106480  0.95513853    -0.90230
H1836       H  0.64791721  0.31943067  0.96127720     0.17460
H1837       H  0.69116326  0.26222493  0.05912118     0.17450
N1838       N  0.62966803  0.27815183  0.06364156    -0.89260
H1839       H  0.70993576  0.32551633  0.95037275     0.34830
H1840       H  0.73062967  0.29047166  0.95721580     0.39930
H1841       H  0.60641903  0.28792438  0.06025433     0.39550
H1842       H  0.63889827  0.28903682  0.08320857     0.34430
C1843       C  0.31372850  0.27449208  0.92239188    -0.27300
C1844       C  0.29387704  0.27796247  0.94940744    -0.15370
C1845       C  0.30686618  0.29638662  0.97356517     0.35260
C1846       C  0.33428948  0.31416867  0.96802027    -0.26740
C1847       C  0.35577595  0.30827926  0.94315134    -0.15980
C1848       C  0.34473220  0.28775900  0.91987556     0.36350
N1849       N  0.36488246  0.27889625  0.89394404    -0.90230
H1850       H  0.30584438  0.25998221  0.90365934     0.17460
H1851       H  0.34267399  0.32740301  0.98760425     0.17450
N1852       N  0.29680063  0.29343712  0.00601841    -0.89260
H1853       H  0.37052335  0.25441904  0.89704421     0.34830
H1854       H  0.38641658  0.29043114  0.89452048     0.39930
H1855       H  0.27692338  0.27982391  0.00825573     0.39550
H1856       H  0.29125441  0.31617345  0.01384751     0.34430
C1857       C  0.51514844  0.28188950  0.78680130    -0.27300
C1858       C  0.48418442  0.27671968  0.77621594    -0.15370
C1859       C  0.45858579  0.28199793  0.79762147     0.35260
C1860       C  0.46486714  0.29135676  0.82907127    -0.26740
C1861       C  0.49607578  0.29732328  0.83912627    -0.15980
C1862       C  0.52115643  0.29376756  0.81670334     0.36350
N1863       N  0.55342462  0.30149209  0.82366236    -0.90230
H1864       H  0.53502307  0.27759238  0.77101846     0.17460
H1865       H  0.44556103  0.29275517  0.84609501     0.17450
N1866       N  0.42649098  0.27676828  0.78784277    -0.89260
H1867       H  0.56724944  0.28013225  0.82647100     0.34830
H1868       H  0.55491304  0.31339785  0.84471211     0.39930
H1869       H  0.42039798  0.29342311  0.76920123     0.39550
H1870       H  0.41050444  0.28115376  0.80631634     0.34430
C1871       C  0.46562636  0.27836100  0.13850595    -0.27300
C1872       C  0.49257654  0.28835104  0.12081349    -0.15370
C1873       C  0.52273107  0.28454549  0.13652719     0.35260
C1874       C  0.52467410  0.27046117  0.16812466    -0.26740
C1875       C  0.49762391  0.25903652  0.18458523    -0.15980
C1876       C  0.46788561  0.26302691  0.16908352     0.36350
N1877       N  0.43982116  0.25108285  0.18435722    -0.90230
H1878       H  0.44208149  0.28122820  0.12769909     0.17460
H1879       H  0.54761417  0.26905698  0.18005060     0.17450
N1880       N  0.55171058  0.29468377  0.12183253    -0.89260
H1881       H  0.41978222  0.25507820  0.16954528     0.34830
H1882       H  0.43522097  0.26391699  0.20452290     0.39930
H1883       H  0.54744573  0.30543307  0.09924024     0.39550
H1884       H  0.56672115  0.27444059  0.11907776     0.34430
C1885       C  0.47346962  0.17492234  0.14207605    -0.27300
C1886       C  0.49267849  0.18789223  0.11822916    -0.15370
C1887       C  0.52383687  0.19671110  0.12531459     0.35260
C1888       C  0.53820442  0.18340633  0.15311415    -0.26740
C1889       C  0.52146152  0.16144290  0.17175567    -0.15980
C1890       C  0.48791619  0.16296351  0.17029616     0.36350
N1891       N  0.46983235  0.14562619  0.19360939    -0.90230
H1892       H  0.44850254  0.17096639  0.13759950     0.17460
H1893       H  0.56375853  0.18496692  0.15629079     0.17450
N1894       N  0.54121372  0.21812753  0.10480101    -0.89260
H1895       H  0.46026941  0.12644303  0.18293111     0.34830
H1896       H  0.45057978  0.16057577  0.20017057     0.39930
H1897       H  0.52765476  0.22652130  0.08494612     0.39550
H1898       H  0.56152959  0.20596973  0.09663909     0.34430
C1899       C  0.35880394  0.18157992  0.91144424    -0.27300
C1900       C  0.37147974  0.18679691  0.94140047    -0.15370
C1901       C  0.35520501  0.17800160  0.96952852     0.35260
C1902       C  0.32911667  0.16052764  0.96725919    -0.26740
C1903       C  0.31966957  0.15000106  0.93793837    -0.15980
C1904       C  0.33209997  0.16290525  0.90952244     0.36350
N1905       N  0.31811502  0.15631507  0.87958012    -0.90230
H1906       H  0.37050682  0.19058098  0.89025913     0.17460
H1907       H  0.31963424  0.15089518  0.98954809     0.17450
N1908       N  0.36622371  0.18334835  0.00111003    -0.89260
H1909       H  0.32869626  0.16981508  0.86122615     0.34830
H1910       H  0.29417430  0.16457765  0.87995837     0.39930
H1911       H  0.36562469  0.20777367  0.00461218     0.39550
H1912       H  0.38929425  0.17315345  0.00460176     0.34430
C1913       C  0.60108204  0.15989429  0.07793344    -0.27300
C1914       C  0.61172058  0.17496403  0.04956235    -0.15370
C1915       C  0.64451654  0.18153100  0.04651765     0.35260
C1916       C  0.66607394  0.16843900  0.06961014    -0.26740
C1917       C  0.65546712  0.14649607  0.09302109    -0.15980
C1918       C  0.62300534  0.14720077  0.10082001     0.36350
N1919       N  0.61261261  0.12858343  0.12817135    -0.90230
H1920       H  0.57594553  0.15577286  0.08126204     0.17460
H1921       H  0.69144428  0.16942212  0.06477969     0.17450
N1922       N  0.65713657  0.19815808  0.01905263    -0.89260
H1923       H  0.58767388  0.12951226  0.12925787     0.34830
H1924       H  0.62063814  0.13933703  0.14833992     0.39930
H1925       H  0.64623069  0.22104842  0.01686317     0.39550
H1926       H  0.65199355  0.18584323  0.99887830     0.34430
C1927       C  0.66420495  0.06131345  0.72171287    -0.27300
C1928       C  0.65179372  0.03117496  0.72817920    -0.15370
C1929       C  0.67085215  0.00846374  0.74698715     0.35260
C1930       C  0.70024734  0.01704833  0.76013406    -0.26740
C1931       C  0.71070492  0.04845318  0.75647524    -0.15980
C1932       C  0.69157258  0.07077754  0.73728388     0.36350
N1933       N  0.69689207  0.10415352  0.73603991    -0.90230
H1934       H  0.64934585  0.07968407  0.70895060     0.17460
H1935       H  0.71482131  0.99904194  0.77358330     0.17450
N1936       N  0.66044711  0.97679787  0.75407230    -0.89260
H1937       H  0.72067082  0.10776073  0.73063495     0.34830
H1938       H  0.69199547  0.11241347  0.75855430     0.39930
H1939       H  0.63899088  0.97331283  0.74229384     0.39550
H1940       H  0.65594501  0.97448964  0.77850187     0.34430
C1941       C  0.31777281  0.00885919  0.73528519    -0.27300
C1942       C  0.30183891  0.03848440  0.73886315    -0.15370
C1943       C  0.31861020  0.06608710  0.72951264     0.35260
C1944       C  0.35102933  0.06330299  0.71870174    -0.26740
C1945       C  0.36657332  0.03321474  0.71454685    -0.15980
C1946       C  0.34808179  0.00593299  0.72111827     0.36350
N1947       N  0.35980829  0.97429567  0.71441623    -0.90230
H1948       H  0.30584430  0.98733996  0.74242503     0.17460
H1949       H  0.36439828  0.08461326  0.71509214     0.17450
N1950       N  0.30350740  0.09701247  0.73243701    -0.89260
H1951       H  0.36528840  0.96181164  0.73608498     0.34830
H1952       H  0.38047265  0.97468786  0.70058973     0.39930
H1953       H  0.30396972  0.10922572  0.71012779     0.39550
H1954       H  0.31723800  0.10929365  0.74806555     0.34430
C1955       C  0.46025917  0.18640406  0.71542781    -0.27300
C1956       C  0.48990807  0.17540293  0.70317463    -0.15370
C1957       C  0.51473727  0.19743496  0.70156062     0.35260
C1958       C  0.51106572  0.22695927  0.71569108    -0.26740
C1959       C  0.48204129  0.23767087  0.72895063    -0.15980
C1960       C  0.45586878  0.21757833  0.72714231     0.36350
N1961       N  0.42514447  0.22812256  0.73834373    -0.90230
H1962       H  0.44108060  0.17008059  0.71802855     0.17460
H1963       H  0.53128285  0.24209451  0.71587381     0.17450
N1964       N  0.54510087  0.18960181  0.68735190    -0.89260
H1965       H  0.41823438  0.21196611  0.75648541     0.34830
H1966       H  0.40879787  0.22726548  0.71963050     0.39930
H1967       H  0.54470959  0.16819055  0.67589834     0.39550
H1968       H  0.56218755  0.18662180  0.70558021     0.34430
C1969       C  0.50800164  0.87778644  0.72147261    -0.27300
C1970       C  0.53551151  0.89494728  0.72523781    -0.15370
C1971       C  0.56327948  0.87808796  0.73794516     0.35260
C1972       C  0.56216834  0.84525688  0.74755706    -0.26740
C1973       C  0.53363962  0.82892820  0.74599494    -0.15980
C1974       C  0.50627418  0.84597656  0.73307541     0.36350
N1975       N  0.47571309  0.83227672  0.73410172    -0.90230
H1976       H  0.48604544  0.89050818  0.71338807     0.17460
H1977       H  0.58339603  0.83279585  0.75765599     0.17450
N1978       N  0.59225857  0.89397474  0.74333849    -0.89260
H1979       H  0.46560955  0.83607168  0.71138944     0.34830
H1980       H  0.46115515  0.84543638  0.74926597     0.39930
H1981       H  0.59005828  0.91781709  0.73485327     0.39550
H1982       H  0.61015655  0.88317427  0.72974891     0.34430
C1983       C  0.44428247  0.18527531  0.85620755    -0.27300
C1984       C  0.47675873  0.19308324  0.85701699    -0.15370
C1985       C  0.49181844  0.20218575  0.82787112     0.35260
C1986       C  0.47612485  0.19672419  0.79964948    -0.26740
C1987       C  0.45270172  0.17412550  0.80205781    -0.15980
C1988       C  0.43117552  0.17897886  0.82653791     0.36350
N1989       N  0.39766894  0.18143833  0.81967448    -0.90230
H1990       H  0.42994202  0.18431099  0.87757395     0.17460
H1991       H  0.49041632  0.19846556  0.77840229     0.17450
N1992       N  0.52416674  0.21169074  0.82581696    -0.89260
H1993       H  0.38476720  0.18437756  0.84049896     0.34830
H1994       H  0.39132823  0.16039353  0.80977571     0.39930
H1995       H  0.53920586  0.19359781  0.83652970     0.39550
H1996       H  0.52618943  0.23252658  0.83779162     0.34430
C1997       C  0.33498721  0.08074094  0.85715128    -0.27300
C1998       C  0.32458234  0.04972217  0.85573835    -0.15370
C1999       C  0.32570686  0.03496816  0.82649946     0.35260
C2000       C  0.34462194  0.04839522  0.80281011    -0.26740
C2001       C  0.36757256  0.06907302  0.81237845    -0.15980
C2002       C  0.35967553  0.08933816  0.83694236     0.36350
N2003       N  0.38162025  0.11187139  0.84697392    -0.90230
H2004       H  0.33173647  0.09329754  0.87876361     0.17460
H2005       H  0.34971584  0.03421555  0.78268770     0.17450
N2006       N  0.31670078  0.00281307  0.82345985    -0.89260
H2007       H  0.39121961  0.10348830  0.86903316     0.34830
H2008       H  0.36842018  0.13281792  0.85101999     0.39930
H2009       H  0.29465508  0.99998791  0.83438015     0.39550
H2010       H  0.33348604  0.98755839  0.83579977     0.34430
C2011       C  0.61901384  0.10939876  0.88563680    -0.27300
C2012       C  0.59804137  0.08490516  0.89270429    -0.15370
C2013       C  0.58611803  0.08073761  0.92403616     0.35260
C2014       C  0.59566792  0.10079734  0.94712436    -0.26740
C2015       C  0.62357237  0.11721401  0.94188025    -0.15980
C2016       C  0.63168516  0.12606422  0.91023414     0.36350
N2017       N  0.65593208  0.14835345  0.90320996    -0.90230
H2018       H  0.62668629  0.11463905  0.86141680     0.17460
H2019       H  0.58726332  0.09618380  0.97123125     0.17450
N2020       N  0.56612151  0.05504051  0.93317671    -0.89260
H2021       H  0.67566015  0.13576693  0.89403757     0.34830
H2022       H  0.66349777  0.15799541  0.92419583     0.39930
H2023       H  0.54498223  0.06468281  0.94266291     0.39550
H2024       H  0.57790796  0.04065529  0.95106766     0.34430
C2025       C  0.35518704  0.76006404  0.03079268    -0.27300
C2026       C  0.37113764  0.75269296  0.00253974    -0.15370
C2027       C  0.35286139  0.75428295  0.97406444     0.35260
C2028       C  0.32016423  0.76388849  0.97418718    -0.26740
C2029       C  0.30418423  0.77177994  0.00227445    -0.15980
C2030       C  0.32206919  0.76919693  0.03109228     0.36350
N2031       N  0.30707689  0.77694277  0.06047772    -0.90230
H2032       H  0.36910478  0.76063520  0.05249321     0.17460
H2033       H  0.30730001  0.76621939  0.95176076     0.17450
N2034       N  0.36737992  0.74762593  0.94420723    -0.89260
H2035       H  0.32357441  0.77461654  0.07925932     0.34830
H2036       H  0.28986624  0.76029542  0.06556954     0.39930
H2037       H  0.37797124  0.72455958  0.94625828     0.39550
H2038       H  0.38529952  0.76366856  0.93949800     0.34430
C2039       C  0.66061032  0.76474938  0.94698746    -0.27300
C2040       C  0.65112172  0.75868550  0.97883719    -0.15370
C2041       C  0.67307578  0.76716707  0.00331026     0.35260
C2042       C  0.69914310  0.78528856  0.99531178    -0.26740
C2043       C  0.71077103  0.78715209  0.96442629    -0.15980
C2044       C  0.69124176  0.77690909  0.93969284     0.36350
N2045       N  0.70250471  0.77880704  0.90749011    -0.90230
H2046       H  0.64523448  0.75806632  0.92797962     0.17460
H2047       H  0.71421959  0.79228475  0.01448304     0.17450
N2048       N  0.67292941  0.75504348  0.03622353    -0.89260
H2049       H  0.68544976  0.77052349  0.89217078     0.34830
H2050       H  0.72271256  0.76332791  0.90629317     0.39930
H2051       H  0.67350543  0.73031684  0.03815079     0.39550
H2052       H  0.65402291  0.76330400  0.04982626     0.34430
C2053       C  0.52613487  0.73844854  0.15916858    -0.27300
C2054       C  0.49922636  0.74135092  0.13827742    -0.15370
C2055       C  0.47146110  0.75802028  0.14963389     0.35260
C2056       C  0.47172006  0.76991462  0.18082786    -0.26740
C2057       C  0.49959126  0.76763401  0.20029100    -0.15980
C2058       C  0.52727121  0.75317164  0.18799139     0.36350
N2059       N  0.55686427  0.75265615  0.20523135    -0.90230
H2060       H  0.54805362  0.72575177  0.15272661     0.17460
H2061       H  0.44995465  0.78083708  0.19002230     0.17450
N2062       N  0.44255367  0.76264505  0.13122847    -0.89260
H2063       H  0.57350147  0.76428754  0.19084995     0.34830
H2064       H  0.56518712  0.72892063  0.20924331     0.39930
H2065       H  0.44434392  0.75138323  0.10984070     0.39550
H2066       H  0.43904179  0.78711201  0.12560647     0.34430
C2067       C  0.54515647  0.76360050  0.84691250    -0.27300
C2068       C  0.51792529  0.77749485  0.86132864    -0.15370
C2069       C  0.49613537  0.79663956  0.84147709     0.35260
C2070       C  0.50254773  0.80255136  0.80922077    -0.26740
C2071       C  0.52937638  0.78883399  0.79462260    -0.15980
C2072       C  0.55109963  0.76912447  0.81375798     0.36350
N2073       N  0.57930490  0.75532150  0.79962020    -0.90230
H2074       H  0.56225341  0.74926600  0.86161524     0.17460
H2075       H  0.48540426  0.81733267  0.79513515     0.17450
N2076       N  0.46631854  0.80968310  0.85287003    -0.89260
H2077       H  0.59287991  0.74161281  0.81671749     0.34830
H2078       H  0.59331864  0.77402477  0.79158191     0.39930
H2079       H  0.47046974  0.82803401  0.86786418     0.39550
H2080       H  0.45418988  0.79158421  0.86501388     0.34430
C2081       C  0.56118581  0.87739971  0.88534984    -0.27300
C2082       C  0.56675228  0.88999636  0.91503277    -0.15370
C2083       C  0.57942385  0.92040692  0.91603979     0.35260
C2084       C  0.57786564  0.94027443  0.88849239    -0.26740
C2085       C  0.56075247  0.93084297  0.86217767    -0.15980
C2086       C  0.55724273  0.89818388  0.85849044     0.36350
N2087       N  0.54533137  0.88695449  0.82936462    -0.90230
H2088       H  0.55395322  0.85306493  0.88403049     0.17460
H2089       H  0.58322825  0.96509490  0.89029954     0.17450
N2090       N  0.58796353  0.93391628  0.94522763    -0.89260
H2091       H  0.52373268  0.87617509  0.83413246     0.34830
H2092       H  0.56165061  0.86941641  0.82170137     0.39930
H2093       H  0.60342617  0.91767391  0.95799712     0.39550
H2094       H  0.56730773  0.93769433  0.95863670     0.34430
C2095       C  0.50980424  0.84361944  0.17338963    -0.27300
C2096       C  0.54084315  0.83464487  0.16460205    -0.15370
C2097       C  0.56405722  0.85762689  0.16667771     0.35260
C2098       C  0.55413527  0.89001683  0.16304299    -0.26740
C2099       C  0.52139144  0.89868997  0.16041949    -0.15980
C2100       C  0.49904492  0.87528443  0.16835821     0.36350
N2101       N  0.46529570  0.88280378  0.16895574    -0.90230
H2102       H  0.49179631  0.82625100  0.17467170     0.17460
H2103       H  0.57178531  0.90795062  0.16196673     0.17450
N2104       N  0.59751076  0.84869194  0.16617071    -0.89260
H2105       H  0.45684439  0.87594745  0.19153482     0.34830
H2106       H  0.45429161  0.86907988  0.15248311     0.39930
H2107       H  0.60066296  0.82380947  0.16763458     0.39550
H2108       H  0.60766789  0.85669082  0.18682434     0.34430
C2109       C  0.38031037  0.92033922  0.07294061    -0.27300
C2110       C  0.35840171  0.91132736  0.05022126    -0.15370
C2111       C  0.35310861  0.87862664  0.04758377     0.35260
C2112       C  0.37520204  0.85622358  0.06201825    -0.26740
C2113       C  0.40361838  0.86700979  0.07450845    -0.15980
C2114       C  0.40324679  0.89790957  0.08546251     0.36350
N2115       N  0.42906604  0.90786213  0.10429075    -0.90230
H2116       H  0.38268259  0.94526489  0.07741972     0.17460
H2117       H  0.37422719  0.83142440  0.05633900     0.17450
N2118       N  0.32832586  0.86849303  0.02727117    -0.89260
H2119       H  0.41930430  0.91756193  0.12467327     0.34830
H2120       H  0.44040967  0.92599927  0.09135220     0.39930
H2121       H  0.30648582  0.87600122  0.03691752     0.39550
H2122       H  0.32852701  0.84359268  0.02741938     0.34430
C2123       C  0.65921909  0.85903298  0.97535564    -0.27300
C2124       C  0.65907163  0.84671244  0.00687409    -0.15370
C2125       C  0.67532837  0.86201088  0.03016136     0.35260
C2126       C  0.68000004  0.89441684  0.02491150    -0.26740
C2127       C  0.67101651  0.90954140  0.99555674    -0.15980
C2128       C  0.66538667  0.89112889  0.96925733     0.36350
N2129       N  0.66259014  0.90556024  0.93752561    -0.90230
H2130       H  0.64887999  0.84576483  0.95682614     0.17460
H2131       H  0.68848808  0.90801141  0.04408745     0.17450
N2132       N  0.68144903  0.84617927  0.06072919    -0.89260
H2133       H  0.65639159  0.88868876  0.92150879     0.34830
H2134       H  0.68528411  0.91269875  0.93081013     0.39930
H2135       H  0.66826558  0.85822516  0.07776494     0.39550
H2136       H  0.70572165  0.84775939  0.06594161     0.34430
C2137       C  0.85746474  0.78934527  0.95183887    -0.27300
C2138       C  0.86771885  0.79343555  0.98326737    -0.15370
C2139       C  0.84437309  0.79157703  0.00762227     0.35260
C2140       C  0.81338587  0.78171745  0.00063050    -0.26740
C2141       C  0.80346074  0.77661550  0.96935795    -0.15980
C2142       C  0.82540356  0.78272265  0.94452056     0.36350
N2143       N  0.81535981  0.78147312  0.91196387    -0.90230
H2144       H  0.87484431  0.79072376  0.93284009     0.17460
H2145       H  0.79651989  0.77872231  0.01990980     0.17450
N2146       N  0.85075755  0.80055771  0.03939226    -0.89260
H2147       H  0.83430353  0.78621952  0.89656256     0.34830
H2148       H  0.79790112  0.79975832  0.90743638     0.39930
H2149       H  0.87457342  0.80623805  0.04211828     0.39550
H2150       H  0.84629677  0.78132674  0.05526133     0.34430
C2151       C  0.19854815  0.78590442  0.01833390    -0.27300
C2152       C  0.21082509  0.77250702  0.99102987    -0.15370
C2153       C  0.19066966  0.77545023  0.96313662     0.35260
C2154       C  0.15900918  0.79010766  0.96452166    -0.26740
C2155       C  0.14770897  0.80460046  0.99210087    -0.15980
C2156       C  0.16964206  0.80393489  0.01839580     0.36350
N2157       N  0.16301300  0.82169675  0.04601139    -0.90230
H2158       H  0.21284119  0.78419969  0.03991107     0.17460
H2159       H  0.14337294  0.79005411  0.94398467     0.17450
N2160       N  0.20070977  0.76302479  0.93349242    -0.89260
H2161       H  0.18095578  0.83778513  0.04848384     0.34830
H2162       H  0.16366913  0.80590329  0.06612546     0.39930
H2163       H  0.22476029  0.75580035  0.93451373     0.39550
H2164       H  0.19871197  0.78159752  0.91593222     0.34430
C2165       C  0.98346418  0.77995930  0.85010891    -0.27300
C2166       C  0.01192615  0.78758268  0.86519389    -0.15370
C2167       C  0.03997631  0.78904201  0.84636033     0.35260
C2168       C  0.03870927  0.78233682  0.81369930    -0.26740
C2169       C  0.01021275  0.77411361  0.79885430    -0.15980
C2170       C  0.98233297  0.77329884  0.81760009     0.36350
N2171       N  0.95269250  0.76509938  0.80408431    -0.90230
H2172       H  0.96192154  0.77780060  0.86413809     0.17460
H2173       H  0.06049178  0.78284566  0.79988966     0.17450
N2174       N  0.07042535  0.79558398  0.85973119    -0.89260
H2175       H  0.93582386  0.78376762  0.80740827     0.34830
H2176       H  0.94502269  0.74482260  0.81681211     0.39930
H2177       H  0.06846203  0.80022855  0.88377943     0.39550
H2178       H  0.07800303  0.81649873  0.84809756     0.34430
C2179       C  0.95540331  0.79624068  0.15478256    -0.27300
C2180       C  0.98435113  0.80844915  0.14317985    -0.15370
C2181       C  0.01017709  0.80764760  0.16590041     0.35260
C2182       C  0.00842912  0.79086187  0.19548817    -0.26740
C2183       C  0.97993417  0.77998128  0.20779308    -0.15980
C2184       C  0.95250803  0.78380241  0.18733691     0.36350
N2185       N  0.92226780  0.77387118  0.19908309    -0.90230
H2186       H  0.93499591  0.79686376  0.13887315     0.17460
H2187       H  0.02973196  0.78777966  0.20999051     0.17450
N2188       N  0.03896881  0.82407067  0.15959582    -0.89260
H2189       H  0.90479565  0.77749739  0.18128703     0.34830
H2190       H  0.91548900  0.78871469  0.21727958     0.39930
H2191       H  0.05857774  0.80775012  0.16199950     0.39550
H2192       H  0.04130164  0.84093368  0.17668086     0.34430
C2193       C  0.81092743  0.26455624  0.98898647    -0.27300
C2194       C  0.79619560  0.27403080  0.01710443    -0.15370
C2195       C  0.81380969  0.26936775  0.04591298     0.35260
C2196       C  0.84616562  0.25746893  0.04560758    -0.26740
C2197       C  0.86154087  0.24985897  0.01711346    -0.15980
C2198       C  0.84309429  0.25283764  0.98874476     0.36350
N2199       N  0.85791588  0.24634778  0.95898358    -0.90230
H2200       H  0.79769833  0.26736941  0.96675848     0.17460
H2201       H  0.86021125  0.25676912  0.06732423     0.17450
N2202       N  0.79905483  0.27745306  0.07533546    -0.89260
H2203       H  0.84501825  0.22904357  0.94835650     0.34830
H2204       H  0.85608457  0.26721768  0.94422611     0.39930
H2205       H  0.79528015  0.30223363  0.07448164     0.39550
H2206       H  0.81462172  0.27154456  0.09445501     0.34430
C2207       C  0.01789469  0.26651646  0.84345005    -0.27300
C2208       C  0.99013406  0.25365929  0.85675360    -0.15370
C2209       C  0.96261039  0.25391900  0.83685931     0.35260
C2210       C  0.96278410  0.26864805  0.80590406    -0.26740
C2211       C  0.99001210  0.28265747  0.79284490    -0.15980
C2212       C  0.01835472  0.28020804  0.81166692     0.36350
N2213       N  0.04777322  0.29065607  0.79821137    -0.90230
H2214       H  0.03891031  0.26733786  0.85840255     0.17460
H2215       H  0.94122919  0.26883111  0.79157644     0.17450
N2216       N  0.93342369  0.24038239  0.84775762    -0.89260
H2217       H  0.06648824  0.28650360  0.81464226     0.34830
H2218       H  0.04526980  0.31527866  0.79385510     0.39930
H2219       H  0.93636117  0.22883449  0.87026464     0.39550
H2220       H  0.92817268  0.22255919  0.83242813     0.34430
C2221       C  0.16548757  0.22540978  0.98279614    -0.27300
C2222       C  0.14053171  0.23358201  0.96064302    -0.15370
C2223       C  0.14725606  0.25721130  0.93628078     0.35260
C2224       C  0.17714766  0.27242591  0.93611150    -0.26740
C2225       C  0.20019588  0.26650366  0.96072343    -0.15980
C2226       C  0.19324875  0.24297282  0.98464902     0.36350
N2227       N  0.21337795  0.23783341  0.01218216    -0.90230
H2228       H  0.16119213  0.20815674  0.00227288     0.17460
H2229       H  0.18204908  0.28972395  0.91695156     0.17450
N2230       N  0.12388101  0.26766834  0.91245108    -0.89260
H2231       H  0.21917706  0.21343349  0.01538820     0.34830
H2232       H  0.19982893  0.24399736  0.03195236     0.39930
H2233       H  0.10358749  0.25427710  0.91471464     0.39550
H2234       H  0.13369841  0.26291561  0.89029093     0.34430
C2235       C  0.03136019  0.24547086  0.15760257    -0.27300
C2236       C  0.00340124  0.24892537  0.13857826    -0.15370
C2237       C  0.97716281  0.26729113  0.15065115     0.35260
C2238       C  0.97964079  0.28058780  0.18096566    -0.26740
C2239       C  0.00836098  0.27794546  0.19891617    -0.15980
C2240       C  0.03486355  0.26145453  0.18585692     0.36350
N2241       N  0.06604824  0.26306387  0.19992428    -0.90230
H2242       H  0.05229156  0.23300125  0.14830861     0.17460
H2243       H  0.95892644  0.29308355  0.19055456     0.17450
N2244       N  0.94805054  0.27355551  0.13281446    -0.89260
H2245       H  0.08333944  0.25070264  0.18688249     0.34830
H2246       H  0.06605554  0.25181129  0.22253947     0.39930
H2247       H  0.94872374  0.26195339  0.11152438     0.39550
H2248       H  0.94603108  0.29805569  0.12684625     0.34430
C2249       C  0.83691965  0.51486779  0.28859610    -0.27300
C2250       C  0.86216254  0.49257789  0.28192415    -0.15370
C2251       C  0.85388343  0.46767594  0.26206559     0.35260
C2252       C  0.82182201  0.46614369  0.24998277    -0.26740
C2253       C  0.79698858  0.48916940  0.25633621    -0.15980
C2254       C  0.80571206  0.51453196  0.27510467     0.36350
N2255       N  0.78398304  0.54182220  0.27789559    -0.90230
H2256       H  0.84266952  0.53520749  0.30192428     0.17460
H2257       H  0.81620436  0.44641856  0.23577038     0.17450
N2258       N  0.87717341  0.44333647  0.25384247    -0.89260
H2259       H  0.79514813  0.56002916  0.28894177     0.34830
H2260       H  0.76519737  0.53552855  0.29271655     0.39930
H2261       H  0.89925199  0.44665167  0.26440407     0.39550
H2262       H  0.88045128  0.44520953  0.22923370     0.34430
C2263       C  0.19370478  0.55400750  0.24627009    -0.27300
C2264       C  0.20741743  0.52267870  0.24604188    -0.15370
C2265       C  0.18941036  0.49790054  0.25998088     0.35260
C2266       C  0.15907236  0.50475012  0.27363789    -0.26740
C2267       C  0.14416784  0.53557424  0.27157983    -0.15980
C2268       C  0.16219723  0.56046028  0.25781704     0.36350
N2269       N  0.14742670  0.59196770  0.25346862    -0.90230
H2270       H  0.20719535  0.57358449  0.23672155     0.17460
H2271       H  0.14506933  0.48504082  0.28220607     0.17450
N2272       N  0.20106490  0.46537604  0.25847090    -0.89260
H2273       H  0.16315767  0.60756051  0.24231139     0.34830
H2274       H  0.14281107  0.60025739  0.27605617     0.39930
H2275       H  0.20040449  0.45983545  0.23460820     0.39550
H2276       H  0.18577091  0.44997038  0.27054594     0.34430
C2277       C  0.96437785  0.68573415  0.28223420    -0.27300
C2278       C  0.99307053  0.66765267  0.27718368    -0.15370
C2279       C  0.01841352  0.68412115  0.26246683     0.35260
C2280       C  0.01352823  0.71667285  0.25136562    -0.26740
C2281       C  0.98381533  0.73375901  0.25419993    -0.15980
C2282       C  0.95949563  0.71807129  0.27106679     0.36350
N2283       N  0.92946816  0.73484775  0.27634218    -0.90230
H2284       H  0.94445324  0.67365466  0.29294459     0.17460
H2285       H  0.03322440  0.72874698  0.24025466     0.17450
N2286       N  0.04899345  0.66837522  0.25735860    -0.89260
H2287       H  0.91438003  0.72049360  0.28997382     0.34830
H2288       H  0.91831486  0.73937038  0.25422242     0.39930
H2289       H  0.04979821  0.64495131  0.26703990     0.39550
H2290       H  0.06601523  0.68026684  0.26979565     0.34430
C2291       C  0.98257351  0.34165749  0.24299099    -0.27300
C2292       C  0.01078589  0.32206909  0.24128430    -0.15370
C2293       C  0.03960295  0.33434677  0.25168067     0.35260
C2294       C  0.03933435  0.36462414  0.26475074    -0.26740
C2295       C  0.01132137  0.38446624  0.26655806    -0.15980
C2296       C  0.98245020  0.37253870  0.25513443     0.36350
N2297       N  0.95278140  0.39120970  0.25446421    -0.90230
H2298       H  0.96024968  0.33281432  0.23494072     0.17460
H2299       H  0.06192060  0.37399509  0.27142309     0.17450
N2300       N  0.06952484  0.31709990  0.24680001    -0.89260
H2301       H  0.94640654  0.39626092  0.23060362     0.34830
H2302       H  0.95513648  0.41300462  0.26469311     0.39930
H2303       H  0.07005363  0.29591295  0.26087373     0.39550
H2304       H  0.08865163  0.32991005  0.25439511     0.34430
C2305       C  0.01293983  0.37414547  0.17487691    -0.27300
C2306       C  0.98670056  0.39537740  0.16714362    -0.15370
C2307       C  0.96516415  0.38660217  0.14424501     0.35260
C2308       C  0.97719093  0.36742964  0.12053204    -0.26740
C2309       C  0.00924397  0.35616073  0.12202968    -0.15980
C2310       C  0.02568820  0.35534953  0.15118902     0.36350
N2311       N  0.05640825  0.33884695  0.15526076    -0.90230
H2312       H  0.02770135  0.37786794  0.19537609     0.17460
H2313       H  0.96272662  0.36298197  0.10016687     0.17450
N2314       N  0.93258097  0.39867470  0.14352593    -0.89260
H2315       H  0.06469247  0.34033275  0.17857662     0.34830
H2316       H  0.07257603  0.35062174  0.14044243     0.39930
H2317       H  0.92794441  0.41206348  0.16338088     0.39550
H2318       H  0.91812825  0.37908821  0.14577836     0.34430
C2319       C  0.99877568  0.71616987  0.17556428    -0.27300
C2320       C  0.03219222  0.71332374  0.17493347    -0.15370
C2321       C  0.04703946  0.68325916  0.18314294     0.35260
C2322       C  0.02951079  0.65610115  0.17930129    -0.26740
C2323       C  0.99715811  0.65973299  0.17035638    -0.15980
C2324       C  0.98104986  0.68952464  0.17172479     0.36350
N2325       N  0.94722144  0.69313979  0.16632816    -0.90230
H2326       H  0.98707899  0.73831521  0.16746296     0.17460
H2327       H  0.04132346  0.63258769  0.18193894     0.17450
N2328       N  0.08111606  0.68022516  0.18654005    -0.89260
H2329       H  0.94307758  0.70876756  0.14637391     0.34830
H2330       H  0.93693746  0.70371407  0.18601663     0.39930
H2331       H  0.09030354  0.66782044  0.16744024     0.39550
H2332       H  0.08657784  0.66628468  0.20733744     0.34430
C2333       C  0.25199375  0.52061789  0.80603315    -0.27300
C2334       C  0.24800857  0.49150819  0.79236128    -0.15370
C2335       C  0.25657878  0.46332386  0.81139982     0.35260
C2336       C  0.26679561  0.46549061  0.84373588    -0.26740
C2337       C  0.27235206  0.49524851  0.85623399    -0.15980
C2338       C  0.26778536  0.52265795  0.83512872     0.36350
N2339       N  0.27611098  0.55379131  0.84409213    -0.90230
H2340       H  0.24378421  0.54251513  0.79359106     0.17460
H2341       H  0.26884145  0.44418915  0.85945244     0.17450
N2342       N  0.25365287  0.43273080  0.79847558    -0.89260
H2343       H  0.28943385  0.55243450  0.86520804     0.34830
H2344       H  0.25499577  0.56739301  0.84770819     0.39930
H2345       H  0.22926921  0.42946560  0.79570664     0.39550
H2346       H  0.26217739  0.41465368  0.81483518     0.34430
C2347       C  0.27697207  0.49930359  0.15155457    -0.27300
C2348       C  0.27506678  0.52928285  0.13477853    -0.15370
C2349       C  0.26202008  0.55540755  0.15131957     0.35260
C2350       C  0.24959287  0.55059093  0.18250484    -0.26740
C2351       C  0.24928813  0.52005340  0.19824558    -0.15980
C2352       C  0.26325445  0.49419976  0.18202916     0.36350
N2353       N  0.26291526  0.46244272  0.19638814    -0.90230
H2354       H  0.28551243  0.47873750  0.13899958     0.17460
H2355       H  0.24088174  0.57119621  0.19471636     0.17450
N2356       N  0.25961745  0.58704135  0.13644532    -0.89260
H2357       H  0.27538214  0.44625064  0.18241235     0.34830
H2358       H  0.23919029  0.45590905  0.19670424     0.39930
H2359       H  0.27020087  0.58746462  0.11396821     0.39550
H2360       H  0.27305265  0.60156519  0.15017821     0.34430
C2361       C  0.26497192  0.67136358  0.01869977    -0.27300
C2362       C  0.27491093  0.65848821  0.98992977    -0.15370
C2363       C  0.27800652  0.68015822  0.96303568     0.35260
C2364       C  0.26767587  0.71244893  0.96442749    -0.26740
C2365       C  0.25580064  0.72512753  0.99247178    -0.15980
C2366       C  0.25681688  0.70457264  0.02049522     0.36350
N2367       N  0.25085248  0.71760021  0.05087049    -0.90230
H2368       H  0.26241111  0.65539032  0.03954121     0.17460
H2369       H  0.26983264  0.72786063  0.94320441     0.17450
N2370       N  0.29063327  0.66990486  0.93329630    -0.89260
H2371       H  0.25174853  0.69952981  0.06899721     0.34830
H2372       H  0.22789771  0.72822431  0.05073050     0.39930
H2373       H  0.29949836  0.64623515  0.93547507     0.39550
H2374       H  0.31047400  0.68333927  0.92785087     0.34430
C2375       C  0.23726132  0.35776661  0.00689716    -0.27300
C2376       C  0.24731121  0.38129631  0.98437586    -0.15370
C2377       C  0.25090727  0.37199919  0.95233236     0.35260
C2378       C  0.24534028  0.34006433  0.94464358    -0.26740
C2379       C  0.23544938  0.31665584  0.96747990    -0.15980
C2380       C  0.23137823  0.32625530  0.99910506     0.36350
N2381       N  0.22334992  0.30361037  0.02426209    -0.90230
H2382       H  0.23401008  0.36379129  0.03143496     0.17460
H2383       H  0.24887936  0.33341946  0.92034007     0.17450
N2384       N  0.25938505  0.39392099  0.92665544    -0.89260
H2385       H  0.20330760  0.31238954  0.03617131     0.34830
H2386       H  0.24168229  0.30228907  0.04124838     0.39930
H2387       H  0.26184715  0.41681812  0.93418160     0.39550
H2388       H  0.24041664  0.39568184  0.91033524     0.34430
C2389       C  0.12728544  0.59102084  0.15637672    -0.27300
C2390       C  0.09620626  0.59732968  0.14409279    -0.15370
C2391       C  0.09273550  0.61552780  0.11501337     0.35260
C2392       C  0.11875275  0.61555601  0.09441627    -0.26740
C2393       C  0.14560697  0.59538797  0.10248271    -0.15980
C2394       C  0.15246179  0.58853145  0.13483468     0.36350
N2395       N  0.18288639  0.57455869  0.14492298    -0.90230
H2396       H  0.13091689  0.58073326  0.18040142     0.17460
H2397       H  0.11501339  0.62486450  0.07006570     0.17450
N2398       N  0.06270471  0.63014385  0.10417193    -0.89260
H2399       H  0.17939262  0.55204702  0.15586178     0.34830
H2400       H  0.19187103  0.58882420  0.16211707     0.39930
H2401       H  0.04581825  0.62909605  0.12231401     0.39550
H2402       H  0.05446597  0.61716218  0.08556382     0.34430
C2403       C  0.16150217  0.34417722  0.99007790    -0.27300
C2404       C  0.15065058  0.34186393  0.95896832    -0.15370
C2405       C  0.15490615  0.36831580  0.93792578     0.35260
C2406       C  0.15491235  0.39847802  0.95051310    -0.26740
C2407       C  0.15143713  0.40110009  0.98340129    -0.15980
C2408       C  0.15740681  0.37353030  0.00374810     0.36350
N2409       N  0.15760215  0.37510619  0.03783549    -0.90230
H2410       H  0.16255268  0.32290984  0.00571774     0.17460
H2411       H  0.15836900  0.41935677  0.93530294     0.17450
N2412       N  0.15751128  0.36501227  0.90435206    -0.89260
H2413       H  0.16242162  0.35254997  0.04900502     0.34830
H2414       H  0.13452522  0.38237822  0.04468279     0.39930
H2415       H  0.15643162  0.34100429  0.89931956     0.39550
H2416       H  0.18014444  0.37217433  0.89745001     0.34430
C2417       C  0.18040354  0.65526570  0.04007510    -0.27300
C2418       C  0.17218712  0.66014567  0.00777982    -0.15370
C2419       C  0.16905016  0.69069458  0.99328849     0.35260
C2420       C  0.16932607  0.71644773  0.01260852    -0.26740
C2421       C  0.16961322  0.71130274  0.04578907    -0.15980
C2422       C  0.18084763  0.68138711  0.05913586     0.36350
N2423       N  0.18684080  0.67639431  0.09271706    -0.90230
H2424       H  0.18471571  0.63133692  0.05063686     0.17460
H2425       H  0.15910907  0.73866845  0.00256262     0.17450
N2426       N  0.16173463  0.69506354  0.95982177    -0.89260
H2427       H  0.16859798  0.66289052  0.10248526     0.34830
H2428       H  0.18547131  0.69829821  0.10342091     0.39930
H2429       H  0.15925882  0.71925615  0.95285720     0.39550
H2430       H  0.13945134  0.68569571  0.95595298     0.34430
C2431       C  0.16373551  0.51999255  0.70930437    -0.27300
C2432       C  0.14503739  0.49305653  0.71065755    -0.15370
C2433       C  0.15969940  0.46481979  0.72572194     0.35260
C2434       C  0.19088930  0.46494204  0.73967550    -0.26740
C2435       C  0.20748327  0.49327711  0.74218060    -0.15980
C2436       C  0.19229789  0.52140061  0.72705303     0.36350
N2437       N  0.20279874  0.55272626  0.73167978    -0.90230
H2438       H  0.15280866  0.54240698  0.69960250     0.17460
H2439       H  0.20164451  0.44268145  0.74956545     0.17450
N2440       N  0.14290911  0.43580693  0.72843494    -0.89260
H2441       H  0.20763428  0.56363167  0.70947657     0.34830
H2442       H  0.22340574  0.55181203  0.74537543     0.39930
H2443       H  0.12078117  0.43872000  0.71681106     0.39550
H2444       H  0.13829523  0.43085190  0.75256816     0.34430
C2445       C  0.01760104  0.34336670  0.73657698    -0.27300
C2446       C  0.98933870  0.32837007  0.74616333    -0.15370
C2447       C  0.95995360  0.34527716  0.73992105     0.35260
C2448       C  0.95937914  0.37618607  0.72494782    -0.26740
C2449       C  0.98747316  0.39257131  0.71768073    -0.15980
C2450       C  0.01712585  0.37498276  0.72255426     0.36350
N2451       N  0.04710259  0.38783006  0.71345888    -0.90230
H2452       H  0.04038874  0.33028443  0.73961447     0.17460
H2453       H  0.93636819  0.38886670  0.72156976     0.17450
N2454       N  0.93085133  0.33237804  0.75191642    -0.89260
H2455       H  0.05996268  0.39120166  0.73419209     0.34830
H2456       H  0.04396348  0.40984250  0.70097731     0.39930
H2457       H  0.92731758  0.31097710  0.74138003     0.39550
H2458       H  0.91115008  0.34769774  0.74570823     0.34430
C2459       C  0.04191119  0.71661619  0.75279213    -0.27300
C2460       C  0.01177585  0.73215706  0.75524277    -0.15370
C2461       C  0.98455127  0.71570120  0.74661766     0.35260
C2462       C  0.98785951  0.68352320  0.73808050    -0.26740
C2463       C  0.01809830  0.66762905  0.73708902    -0.15980
C2464       C  0.04540576  0.68501603  0.74331437     0.36350
N2465       N  0.07683757  0.67011750  0.74052876    -0.90230
H2466       H  0.06295476  0.72938674  0.75816135     0.17460
H2467       H  0.96667086  0.67062571  0.73358085     0.17450
N2468       N  0.95347521  0.73138371  0.74661837    -0.89260
H2469       H  0.09438068  0.68586411  0.74598843     0.34830
H2470       H  0.08006428  0.66507128  0.71665507     0.39930
H2471       H  0.93905227  0.71812443  0.76208158     0.39550
H2472       H  0.94378883  0.73081910  0.72373977     0.34430
C2473       C  0.85176354  0.54668262  0.71691176    -0.27300
C2474       C  0.86842213  0.57410825  0.72212118    -0.15370
C2475       C  0.85213763  0.59818023  0.73906914     0.35260
C2476       C  0.82096227  0.59380977  0.75103296    -0.26740
C2477       C  0.80594951  0.56468783  0.74892411    -0.15980
C2478       C  0.82301671  0.54023246  0.73267046     0.36350
N2479       N  0.81497514  0.50738844  0.73546264    -0.90230
H2480       H  0.86446305  0.52700278  0.70599160     0.17460
H2481       H  0.80887339  0.61292795  0.76324457     0.17450
N2482       N  0.86761770  0.62660466  0.74613709    -0.89260
H2483       H  0.81553064  0.49825790  0.71293863     0.34830
H2484       H  0.79217880  0.50490515  0.74446422     0.39930
H2485       H  0.87469381  0.63772130  0.72463029     0.39550
H2486       H  0.88812569  0.62024019  0.75969585     0.34430
C2487       C  0.15621519  0.45291077  0.82490876    -0.27300
C2488       C  0.12780455  0.43787455  0.83185517    -0.15370
C2489       C  0.12510986  0.42712557  0.86388766     0.35260
C2490       C  0.13202744  0.44926080  0.88604178    -0.26740
C2491       C  0.14987405  0.47551038  0.87640678    -0.15980
C2492       C  0.16450148  0.47610510  0.84597676     0.36350
N2493       N  0.18278327  0.50242519  0.83501481    -0.90230
H2494       H  0.16404961  0.45509234  0.80045137     0.17460
H2495       H  0.12111886  0.44745534  0.90930873     0.17450
N2496       N  0.10578340  0.40122236  0.87329434    -0.89260
H2497       H  0.18717512  0.50155466  0.81065348     0.34830
H2498       H  0.20471876  0.49976899  0.84683128     0.39930
H2499       H  0.11340910  0.38178208  0.86034913     0.39550
H2500       H  0.08201774  0.40740696  0.86737361     0.34430
C2501       C  0.99328843  0.36207822  0.80807463    -0.27300
C2502       C  0.01813437  0.38241712  0.80323974    -0.15370
C2503       C  0.04755477  0.37364054  0.81814886     0.35260
C2504       C  0.04656890  0.35687658  0.84770358    -0.26740
C2505       C  0.01679357  0.34851947  0.85947233    -0.15980
C2506       C  0.99054331  0.34766836  0.83818588     0.36350
N2507       N  0.95959309  0.33818023  0.84846011    -0.90230
H2508       H  0.97128536  0.36667603  0.79478637     0.17460
H2509       H  0.06757599  0.35367666  0.86269105     0.17450
N2510       N  0.07668446  0.38695844  0.80729200    -0.89260
H2511       H  0.95101574  0.32253777  0.83246110     0.34830
H2512       H  0.94402215  0.35843289  0.84733572     0.39930
H2513       H  0.07238782  0.40144498  0.78659030     0.39550
H2514       H  0.09214284  0.36802839  0.80117142     0.34430
C2515       C  0.08156595  0.65965665  0.90777032    -0.27300
C2516       C  0.07779207  0.64886512  0.93954685    -0.15370
C2517       C  0.07013057  0.61717254  0.94726323     0.35260
C2518       C  0.06213440  0.59810501  0.92273588    -0.26740
C2519       C  0.06061571  0.61071645  0.89125327    -0.15980
C2520       C  0.07175948  0.64124634  0.88327285     0.36350
N2521       N  0.07057607  0.65442287  0.85094778    -0.90230
H2522       H  0.08715037  0.68429680  0.90234733     0.17460
H2523       H  0.05468204  0.57414562  0.92851545     0.17450
N2524       N  0.06527496  0.60627622  0.97983252    -0.89260
H2525       H  0.07984314  0.67711651  0.84939986     0.34830
H2526       H  0.04651013  0.65751119  0.84423889     0.39930
H2527       H  0.08714906  0.60615738  0.99167610     0.39550
H2528       H  0.05822589  0.58271685  0.98124096     0.34430
C2529       C  0.73716316  0.37485394  0.03396474    -0.27300
C2530       C  0.74638256  0.39170438  0.00585102    -0.15370
C2531       C  0.75889084  0.37344154  0.98077586     0.35260
C2532       C  0.76400905  0.34015238  0.98502397    -0.26740
C2533       C  0.75569118  0.32333403  0.01324681    -0.15980
C2534       C  0.74142189  0.34101180  0.03768717     0.36350
N2535       N  0.73215694  0.32483625  0.06678165    -0.90230
H2536       H  0.72795617  0.38801786  0.05366534     0.17460
H2537       H  0.77431012  0.32717464  0.96568305     0.17450
N2538       N  0.76610616  0.38795309  0.95016376    -0.89260
H2539       H  0.70774825  0.32994940  0.07003514     0.34830
H2540       H  0.74444923  0.33430073  0.08546505     0.39930
H2541       H  0.78525027  0.40270372  0.95217872     0.39550
H2542       H  0.74598465  0.40161013  0.94177696     0.34430
C2543       C  0.75951599  0.67791930  0.94677912    -0.27300
C2544       C  0.73492104  0.66968376  0.96813334    -0.15370
C2545       C  0.72187378  0.69412244  0.98634301     0.35260
C2546       C  0.73713181  0.72309402  0.98769380    -0.26740
C2547       C  0.75935840  0.73339285  0.96482929    -0.15980
C2548       C  0.77066479  0.70977708  0.94381236     0.36350
N2549       N  0.79459877  0.71731684  0.92071831    -0.90230
H2550       H  0.77115822  0.65928140  0.93356653     0.17460
H2551       H  0.73199714  0.73726009  0.00766839     0.17450
N2552       N  0.69444212  0.68890865  0.00609324    -0.89260
H2553       H  0.79853407  0.69841856  0.90582899     0.34830
H2554       H  0.81596834  0.71915594  0.93320983     0.39930
H2555       H  0.68652942  0.66579388  0.00552103     0.39550
H2556       H  0.67571300  0.70240221  0.99499423     0.34430
C2557       C  0.72436601  0.52799488  0.16951030    -0.27300
C2558       C  0.72363949  0.50463588  0.14627748    -0.15370
C2559       C  0.73425205  0.47305193  0.15758912     0.35260
C2560       C  0.74650161  0.46704097  0.18968329    -0.26740
C2561       C  0.74968153  0.49156899  0.21142031    -0.15980
C2562       C  0.73761791  0.52226929  0.20051405     0.36350
N2563       N  0.74157464  0.54886230  0.21978819    -0.90230
H2564       H  0.71626864  0.55235329  0.16306280     0.17460
H2565       H  0.75439739  0.44293059  0.19738902     0.17450
N2566       N  0.73401333  0.44660484  0.13743743    -0.89260
H2567       H  0.71947717  0.56128810  0.22142275     0.34830
H2568       H  0.75694075  0.56428883  0.20784577     0.39930
H2569       H  0.72380302  0.45343748  0.11536297     0.39550
H2570       H  0.71910742  0.42985961  0.14802771     0.34430
C2571       C  0.74458505  0.57944233  0.81303200    -0.27300
C2572       C  0.76621972  0.55867177  0.79729527    -0.15370
C2573       C  0.78057395  0.53279308  0.81571993     0.35260
C2574       C  0.77283367  0.52765715  0.84792498    -0.26740
C2575       C  0.75195639  0.54838319  0.86423853    -0.15980
C2576       C  0.73762047  0.57499242  0.84615032     0.36350
N2577       N  0.71664893  0.59826448  0.86020662    -0.90230
H2578       H  0.73317407  0.59956071  0.79951786     0.17460
H2579       H  0.78428738  0.50700347  0.86059657     0.17450
N2580       N  0.80249139  0.51053877  0.80175974    -0.89260
H2581       H  0.72771239  0.62006143  0.85841425     0.34830
H2582       H  0.71342978  0.59277781  0.88439197     0.39930
H2583       H  0.79326831  0.48787001  0.80448414     0.39550
H2584       H  0.82412475  0.50990584  0.81425050     0.34430
C2585       C  0.91783278  0.59946194  0.88745917    -0.27300
C2586       C  0.90469730  0.58305282  0.86273834    -0.15370
C2587       C  0.87141522  0.58528515  0.85775508     0.35260
C2588       C  0.85193243  0.59632023  0.88212596    -0.26740
C2589       C  0.86593006  0.60221336  0.91146387    -0.15980
C2590       C  0.89824575  0.60936688  0.91218221     0.36350
N2591       N  0.91199254  0.62140082  0.94003433    -0.90230
H2592       H  0.94352037  0.60038680  0.89008888     0.17460
H2593       H  0.82640894  0.59325763  0.88064146     0.17450
N2594       N  0.85730094  0.57273503  0.83035793    -0.89260
H2595       H  0.92344343  0.64220189  0.93308026     0.34830
H2596       H  0.92937246  0.60460241  0.94913059     0.39930
H2597       H  0.84285571  0.59092466  0.81899236     0.39550
H2598       H  0.84252616  0.55465570  0.83830287     0.34430
C2599       C  0.80655468  0.50647058  0.17271614    -0.27300
C2600       C  0.80569689  0.48992103  0.14534564    -0.15370
C2601       C  0.82645918  0.46298622  0.14307033     0.35260
C2602       C  0.85570554  0.46269883  0.15909580    -0.26740
C2603       C  0.86138295  0.48792876  0.17848884    -0.15980
C2604       C  0.83548172  0.50900231  0.18705696     0.36350
N2605       N  0.83850638  0.53728820  0.20430088    -0.90230
H2606       H  0.79024519  0.52684087  0.17495888     0.17460
H2607       H  0.87458825  0.44526879  0.15389326     0.17450
N2608       N  0.82052389  0.43925396  0.12094782    -0.89260
H2609       H  0.85333519  0.55293268  0.19191462     0.34830
H2610       H  0.84706449  0.53143381  0.22718192     0.39930
H2611       H  0.79825658  0.44421756  0.10998259     0.39550
H2612       H  0.81904421  0.41749695  0.13401525     0.34430
C2613       C  0.86009378  0.40241762  0.06678681    -0.27300
C2614       C  0.87139818  0.43230530  0.07273687    -0.15370
C2615       C  0.90296942  0.43473423  0.08295261     0.35260
C2616       C  0.92509738  0.41127007  0.07463963    -0.26740
C2617       C  0.91475594  0.38486116  0.05945614    -0.15980
C2618       C  0.88215448  0.37783546  0.06010405     0.36350
N2619       N  0.87162693  0.34801257  0.04974014    -0.90230
H2620       H  0.83498092  0.40008710  0.06153271     0.17460
H2621       H  0.95026319  0.41591871  0.07626286     0.17450
N2622       N  0.91353651  0.46342548  0.09556063    -0.89260
H2623       H  0.84670665  0.34747641  0.05079057     0.34830
H2624       H  0.88068281  0.33002014  0.06591837     0.39930
H2625       H  0.93031111  0.47319318  0.07995362     0.39550
H2626       H  0.92516495  0.45722110  0.11710813     0.34430
C2627       C  0.85881760  0.69716630  0.07476324    -0.27300
C2628       C  0.85535361  0.66495087  0.08293242    -0.15370
C2629       C  0.88017872  0.64733785  0.09985953     0.35260
C2630       C  0.91074663  0.65934084  0.10022684    -0.26740
C2631       C  0.91567631  0.68867101  0.08435986    -0.15980
C2632       C  0.88909703  0.70953928  0.07622848     0.36350
N2633       N  0.89301449  0.74187901  0.06489531    -0.90230
H2634       H  0.83949560  0.71127723  0.06286854     0.17460
H2635       H  0.93095314  0.64371568  0.10797959     0.17450
N2636       N  0.87556132  0.61528818  0.11177980    -0.89260
H2637       H  0.88888289  0.74301173  0.04036963     0.34830
H2638       H  0.91636250  0.74860895  0.06872079     0.39930
H2639       H  0.88155192  0.61366759  0.13597795     0.39550
H2640       H  0.89146132  0.59996781  0.10011969     0.34430
C2641       C  0.24995671  0.47525759  0.68461327    -0.27300
C2642       C  0.26147701  0.50093327  0.70120102    -0.15370
C2643       C  0.26005602  0.53121494  0.68518385     0.35260
C2644       C  0.24435846  0.53599586  0.65588736    -0.26740
C2645       C  0.23518814  0.51060837  0.63782384    -0.15980
C2646       C  0.23813698  0.47942712  0.65276464     0.36350
N2647       N  0.22964106  0.45167936  0.63686233    -0.90230
H2648       H  0.25032861  0.45171060  0.69649617     0.17460
H2649       H  0.24273463  0.56022834  0.64549764     0.17450
N2650       N  0.27552533  0.55745009  0.69762251    -0.89260
H2651       H  0.25062555  0.43775680  0.63363636     0.34830
H2652       H  0.22003294  0.45779181  0.61435853     0.39930
H2653       H  0.25873352  0.57639949  0.69970801     0.39550
H2654       H  0.29234469  0.56516416  0.68098941     0.34430
C2655       C  0.24880314  0.47697242  0.34203986    -0.27300
C2656       C  0.24529095  0.50530840  0.35837230    -0.15370
C2657       C  0.24720275  0.53463844  0.33992519     0.35260
C2658       C  0.25311270  0.53435972  0.30661122    -0.26740
C2659       C  0.25847524  0.50571231  0.29080195    -0.15980
C2660       C  0.25534184  0.47678773  0.30912563     0.36350
N2661       N  0.25993144  0.44679010  0.29494115    -0.90230
H2662       H  0.24788068  0.45422880  0.35539564     0.17460
H2663       H  0.25501114  0.55689708  0.29311552     0.17450
N2664       N  0.24549379  0.56502777  0.35403752    -0.89260
H2665       H  0.23955867  0.43382526  0.29919853     0.34830
H2666       H  0.27890076  0.43413858  0.30688647     0.39930
H2667       H  0.24231011  0.56265898  0.37857764     0.39550
H2668       H  0.22532305  0.57788328  0.34462389     0.34430
C2669       C  0.23423131  0.67852347  0.48000194    -0.27300
C2670       C  0.24111270  0.65490992  0.45821827    -0.15370
C2671       C  0.26135607  0.66359057  0.43233902     0.35260
C2672       C  0.27354473  0.69476304  0.42920351    -0.26740
C2673       C  0.26797287  0.71773946  0.45220750    -0.15980
C2674       C  0.24793576  0.70862226  0.47832174     0.36350
N2675       N  0.24266758  0.72788727  0.50517196    -0.90230
H2676       H  0.22063374  0.67211538  0.50112057     0.17460
H2677       H  0.28854731  0.70072581  0.40901817     0.17450
N2678       N  0.27126942  0.64095557  0.40953838    -0.89260
H2679       H  0.21805487  0.73129966  0.50833328     0.34830
H2680       H  0.25182430  0.75032816  0.50147823     0.39930
H2681       H  0.26028285  0.61935912  0.41382090     0.39550
H2682       H  0.29587781  0.63623771  0.41246074     0.34430
C2683       C  0.22484011  0.36076464  0.47441494    -0.27300
C2684       C  0.22830682  0.37210810  0.50521192    -0.15370
C2685       C  0.24369907  0.35044512  0.52834719     0.35260
C2686       C  0.25627217  0.32007058  0.52014448    -0.26740
C2687       C  0.25291226  0.30869844  0.48948430    -0.15980
C2688       C  0.23627043  0.32955478  0.46663325     0.36350
N2689       N  0.23117419  0.31930250  0.43520719    -0.90230
H2690       H  0.21500037  0.37697237  0.45557355     0.17460
H2691       H  0.26784021  0.30476286  0.53864195     0.17450
N2692       N  0.24823702  0.35917486  0.56056612    -0.89260
H2693       H  0.24141856  0.33548176  0.41897311     0.34830
H2694       H  0.20656613  0.32064904  0.43079702     0.39930
H2695       H  0.23654193  0.38108998  0.56461506     0.39550
H2696       H  0.27269552  0.36168633  0.56406042     0.34430
C2697       C  0.49330142  0.69428302  0.77999748    -0.27300
C2698       C  0.51688838  0.66999640  0.77511198    -0.15370
C2699       C  0.54501466  0.67943957  0.75887616     0.35260
C2700       C  0.54815682  0.71184822  0.74784362    -0.26740
C2701       C  0.52393464  0.73587275  0.75185421    -0.15980
C2702       C  0.49612914  0.72642224  0.76878830     0.36350
N2703       N  0.46898542  0.74792495  0.77320597    -0.90230
H2704       H  0.47095296  0.68772647  0.79089928     0.17460
H2705       H  0.56961636  0.71816167  0.73513645     0.17450
N2706       N  0.57013943  0.65666985  0.75137037    -0.89260
H2707       H  0.46582115  0.74982582  0.79767673     0.34830
H2708       H  0.47254665  0.77072398  0.76336806     0.39930
H2709       H  0.56547600  0.63385644  0.76066361     0.39550
H2710       H  0.59089168  0.66318332  0.76269999     0.34430
C2711       C  0.67219336  0.52858664  0.78593019    -0.27300
C2712       C  0.64768805  0.55239102  0.77991365    -0.15370
C2713       C  0.65617286  0.57903319  0.75987506     0.35260
C2714       C  0.68779754  0.58104071  0.74710207    -0.26740
C2715       C  0.71191020  0.55633535  0.75231391    -0.15980
C2716       C  0.70292304  0.52943560  0.77202445     0.36350
N2717       N  0.72331065  0.50117917  0.77710939    -0.90230
H2718       H  0.66635006  0.50696685  0.79950535     0.17460
H2719       H  0.69340292  0.60202892  0.73246751     0.17450
N2720       N  0.63290874  0.60408741  0.75137513    -0.89260
H2721       H  0.72826045  0.49803029  0.80146983     0.34830
H2722       H  0.74489820  0.50325110  0.76540035     0.39930
H2723       H  0.62436622  0.61335208  0.77244945     0.39550
H2724       H  0.61382084  0.59431295  0.73990954     0.34430
C2725       C  0.34363155  0.52873655  0.77768524    -0.27300
C2726       C  0.36681823  0.50389895  0.77487963    -0.15370
C2727       C  0.35681602  0.47623552  0.76026555     0.35260
C2728       C  0.32448856  0.47436800  0.74978701    -0.26740
C2729       C  0.30185990  0.50045644  0.75059525    -0.15980
C2730       C  0.31279520  0.52850356  0.76435198     0.36350
N2731       N  0.29539008  0.55876091  0.76218948    -0.90230
H2732       H  0.35099389  0.55092733  0.78679672     0.17460
H2733       H  0.31751663  0.45284729  0.73913780     0.17450
N2734       N  0.37905887  0.45026885  0.75420447    -0.89260
H2735       H  0.29322970  0.56734670  0.78491285     0.34830
H2736       H  0.27251292  0.55650724  0.75371039     0.39930
H2737       H  0.40173788  0.45466299  0.76275438     0.39550
H2738       H  0.38102355  0.44912590  0.72951437     0.34430
C2739       C  0.52133906  0.36862787  0.75348931    -0.27300
C2740       C  0.49556066  0.38891065  0.76320524    -0.15370
C2741       C  0.46430141  0.37832283  0.75783393     0.35260
C2742       C  0.46036613  0.34923296  0.74235212    -0.26740
C2743       C  0.48663927  0.33035745  0.73131815    -0.15980
C2744       C  0.51735483  0.34096554  0.73698366     0.36350
N2745       N  0.54515381  0.32365293  0.72620576    -0.90230
H2746       H  0.54574403  0.37500901  0.75745030     0.17460
H2747       H  0.43645496  0.34126909  0.73898237     0.17450
N2748       N  0.43616710  0.39610902  0.76728959    -0.89260
H2749       H  0.56053930  0.31840318  0.74559182     0.34830
H2750       H  0.55700441  0.33875226  0.71008544     0.39930
H2751       H  0.44226072  0.41562845  0.77984181     0.39550
H2752       H  0.42384564  0.38140664  0.78338571     0.34430
C2753       C  0.39437032  0.46072089  0.64466127    -0.27300
C2754       C  0.39023696  0.48806253  0.66219216    -0.15370
C2755       C  0.35881568  0.49961654  0.66926172     0.35260
C2756       C  0.33320739  0.48733779  0.65351923    -0.26740
C2757       C  0.34064664  0.47145464  0.62621204    -0.15980
C2758       C  0.36829062  0.45096029  0.62747045     0.36350
N2759       N  0.37257236  0.42563832  0.60611311    -0.90230
H2760       H  0.41792937  0.44964632  0.64126412     0.17460
H2761       H  0.31000359  0.49948567  0.65523828     0.17450
N2762       N  0.35328097  0.52749621  0.68689242    -0.89260
H2763       H  0.38983742  0.43214536  0.58938296     0.34830
H2764       H  0.35132891  0.42317433  0.59353342     0.39930
H2765       H  0.33580423  0.52285417  0.70373907     0.39550
H2766       H  0.34426451  0.54585423  0.67112541     0.34430
C2767       C  0.80484825  0.68695865  0.48821507    -0.27300
C2768       C  0.80529345  0.66298109  0.51302541    -0.15370
C2769       C  0.79522215  0.67282361  0.54333729     0.35260
C2770       C  0.78309019  0.70519405  0.54695957    -0.26740
C2771       C  0.77892356  0.72796070  0.52072182    -0.15980
C2772       C  0.79231852  0.71840277  0.49129239     0.36350
N2773       N  0.79208341  0.73915357  0.46296610    -0.90230
H2774       H  0.81287947  0.68065420  0.46479859     0.17460
H2775       H  0.77501011  0.71209234  0.57012857     0.17450
N2776       N  0.79568812  0.64990884  0.56997205    -0.89260
H2777       H  0.81548501  0.73962151  0.45441939     0.34830
H2778       H  0.78590104  0.76249645  0.46799892     0.39930
H2779       H  0.77958748  0.63252594  0.56515380     0.39550
H2780       H  0.78733613  0.66067918  0.59037283     0.34430
C2781       C  0.78461373  0.57052615  0.65467359    -0.27300
C2782       C  0.78688184  0.53857508  0.64556536    -0.15370
C2783       C  0.77299820  0.51556123  0.66740628     0.35260
C2784       C  0.75702379  0.52457917  0.69522289    -0.26740
C2785       C  0.75557672  0.55577585  0.70493061    -0.15980
C2786       C  0.76999101  0.57901839  0.68421068     0.36350
N2787       N  0.76990256  0.61137826  0.69308300    -0.90230
H2788       H  0.79384671  0.58904786  0.63884793     0.17460
H2789       H  0.74661706  0.50612149  0.71025029     0.17450
N2790       N  0.77432318  0.48217731  0.66155570    -0.89260
H2791       H  0.75810503  0.62565781  0.67520868     0.34830
H2792       H  0.79359022  0.61810069  0.69355877     0.39930
H2793       H  0.75089772  0.47481364  0.65991122     0.39550
H2794       H  0.78537892  0.46933235  0.68086415     0.34430
C2795       C  0.75909448  0.36991460  0.47993690    -0.27300
C2796       C  0.76993331  0.38264150  0.50790968    -0.15370
C2797       C  0.76805955  0.36340993  0.53664167     0.35260
C2798       C  0.75502135  0.33290963  0.53691438    -0.26740
C2799       C  0.74395190  0.31996273  0.50905696    -0.15980
C2800       C  0.74674792  0.33896470  0.48011631     0.36350
N2801       N  0.73782776  0.32697868  0.45046145    -0.90230
H2802       H  0.75907928  0.38449074  0.45787421     0.17460
H2803       H  0.75429022  0.31858927  0.55910028     0.17450
N2804       N  0.77866160  0.37555549  0.56596537    -0.89260
H2805       H  0.75763477  0.32740790  0.43539529     0.34830
H2806       H  0.71995082  0.34249307  0.44016958     0.39930
H2807       H  0.80325126  0.37844080  0.56407324     0.39550
H2808       H  0.77549884  0.35900655  0.58504261     0.34430
C2809       C  0.78188779  0.47091989  0.35359717    -0.27300
C2810       C  0.76174505  0.49026570  0.37195788    -0.15370
C2811       C  0.73089873  0.49876166  0.35912504     0.35260
C2812       C  0.72376471  0.49434479  0.32698530    -0.26740
C2813       C  0.74563232  0.47953318  0.30650655    -0.15980
C2814       C  0.77305605  0.46381650  0.32191774     0.36350
N2815       N  0.79050331  0.43880683  0.30687429    -0.90230
H2816       H  0.80455151  0.46158286  0.36350473     0.17460
H2817       H  0.70070896  0.50332502  0.31819318     0.17450
N2818       N  0.70664437  0.51259589  0.37886894    -0.89260
H2819       H  0.78663477  0.41752085  0.32002307     0.34830
H2820       H  0.81482611  0.44268890  0.30916741     0.39930
H2821       H  0.70158109  0.49550244  0.39692225     0.39550
H2822       H  0.68538459  0.51767630  0.36610856     0.34430
C2823       C  0.65076507  0.59760907  0.66731827    -0.27300
C2824       C  0.64143529  0.56636085  0.67373551    -0.15370
C2825       C  0.66430822  0.54071737  0.67386234     0.35260
C2826       C  0.69420878  0.54614663  0.66257656    -0.26740
C2827       C  0.70023652  0.57546714  0.64707956    -0.15980
C2828       C  0.68102720  0.60242474  0.65443819     0.36350
N2829       N  0.69335937  0.63372490  0.65270845    -0.90230
H2830       H  0.63507831  0.61781974  0.67214176     0.17460
H2831       H  0.70887201  0.52491855  0.65861183     0.17450
N2832       N  0.65649151  0.50840203  0.68219807    -0.89260
H2833       H  0.67684280  0.64988715  0.64133815     0.34830
H2834       H  0.71444296  0.63359772  0.63949984     0.39930
H2835       H  0.67191608  0.49940385  0.70049092     0.39550
H2836       H  0.66041745  0.49474884  0.66240233     0.34430
C2837       C  0.70860899  0.77599136  0.54880556    -0.27300
C2838       C  0.72907783  0.77416028  0.52180944    -0.15370
C2839       C  0.71607129  0.78900462  0.49306435     0.35260
C2840       C  0.68468993  0.80333637  0.49161952    -0.26740
C2841       C  0.66297937  0.80218378  0.51725672    -0.15980
C2842       C  0.67588604  0.78851079  0.54670438     0.36350
N2843       N  0.65634127  0.78560112  0.57459234    -0.90230
H2844       H  0.71760891  0.76610991  0.57159572     0.17460
H2845       H  0.67595583  0.81281323  0.46853982     0.17450
N2846       N  0.73397619  0.78861151  0.46421203    -0.89260
H2847       H  0.65391216  0.76129086  0.58014776     0.34830
H2848       H  0.63340486  0.79573745  0.57011503     0.39930
H2849       H  0.73497437  0.81202580  0.45469795     0.39550
H2850       H  0.72135135  0.77609606  0.44787654     0.34430
C2851       C  0.49327379  0.79562786  0.65616511    -0.27300
C2852       C  0.51998827  0.80312460  0.63709468    -0.15370
C2853       C  0.55047744  0.79981008  0.65232508     0.35260
C2854       C  0.55289255  0.78913529  0.68514093    -0.26740
C2855       C  0.52611123  0.77900945  0.70291451    -0.15980
C2856       C  0.49611521  0.78188686  0.68740264     0.36350
N2857       N  0.46830248  0.76963239  0.70258958    -0.90230
H2858       H  0.46963838  0.79713669  0.64542636     0.17460
H2859       H  0.57614243  0.78775119  0.69661393     0.17450
N2860       N  0.57944620  0.80596621  0.63540533    -0.89260
H2861       H  0.45939177  0.75254523  0.68827456     0.34830
H2862       H  0.45039640  0.78773057  0.70292071     0.39930
H2863       H  0.57468868  0.81441187  0.61202711     0.39550
H2864       H  0.59256799  0.78425145  0.63431436     0.34430
C2865       C  0.35800526  0.77124435  0.49157361    -0.27300
C2866       C  0.37915095  0.78183025  0.46751944    -0.15370
C2867       C  0.36818383  0.78054283  0.43556989     0.35260
C2868       C  0.33722427  0.76901423  0.42929929    -0.26740
C2869       C  0.31696626  0.75708684  0.45380519    -0.15980
C2870       C  0.32856958  0.75782073  0.48543534     0.36350
N2871       N  0.30928467  0.74754272  0.51191171    -0.90230
H2872       H  0.36520487  0.77223334  0.51625031     0.17460
H2873       H  0.32876579  0.76959975  0.40491292     0.17450
N2874       N  0.38760295  0.78999567  0.40897455    -0.89260
H2875       H  0.31994914  0.75201817  0.53361084     0.34830
H2876       H  0.30767302  0.72290875  0.51182653     0.39930
H2877       H  0.40910706  0.79851688  0.41666284     0.39550
H2878       H  0.37546188  0.80918105  0.39658551     0.34430
C2879       C  0.53558348  0.78917267  0.33362057    -0.27300
C2880       C  0.50914655  0.78891323  0.35428147    -0.15370
C2881       C  0.48109106  0.77516439  0.34332223     0.35260
C2882       C  0.48065547  0.76210779  0.31281282    -0.26740
C2883       C  0.50784229  0.76117409  0.29296248    -0.15980
C2884       C  0.53574107  0.77510567  0.30405822     0.36350
N2885       N  0.56542653  0.77404258  0.28696556    -0.90230
H2886       H  0.55780202  0.79823847  0.34182959     0.17460
H2887       H  0.45877180  0.75249673  0.30453850     0.17450
N2888       N  0.45286087  0.77355112  0.36251082    -0.89260
H2889       H  0.57238660  0.79740138  0.28251308     0.34830
H2890       H  0.56307665  0.76401384  0.26505553     0.39930
H2891       H  0.45592950  0.78440373  0.38393847     0.39550
H2892       H  0.44910873  0.74951277  0.36819329     0.34430
C2893       C  0.38477572  0.68346508  0.46408001    -0.27300
C2894       C  0.41522784  0.67068375  0.45698488    -0.15370
C2895       C  0.41816402  0.64483921  0.43719524     0.35260
C2896       C  0.39110744  0.62746658  0.43227936    -0.26740
C2897       C  0.36367741  0.63399420  0.45032588    -0.15980
C2898       C  0.35890899  0.66420351  0.46241959     0.36350
N2899       N  0.33024256  0.67257714  0.47878919    -0.90230
H2900       H  0.38188349  0.70502547  0.47698225     0.17460
H2901       H  0.39378123  0.60512884  0.42062729     0.17450
N2902       N  0.44883216  0.63415141  0.42572787    -0.89260
H2903       H  0.32291183  0.69507729  0.46954539     0.34830
H2904       H  0.33598234  0.67449042  0.50279901     0.39930
H2905       H  0.45704408  0.65273292  0.41102400     0.39550
H2906       H  0.44661989  0.61476752  0.41145867     0.34430
C2907       C  0.53993289  0.71430973  0.65937620    -0.27300
C2908       C  0.56217431  0.70520916  0.63634417    -0.15370
C2909       C  0.58357225  0.67972351  0.64542089     0.35260
C2910       C  0.57195490  0.65553492  0.66540178    -0.26740
C2911       C  0.54051856  0.65896674  0.67596611    -0.15980
C2912       C  0.52561424  0.68949171  0.67650422     0.36350
N2913       N  0.49371780  0.69372353  0.68814319    -0.90230
H2914       H  0.52578544  0.73618658  0.65512178     0.17460
H2915       H  0.58434383  0.63238781  0.66709551     0.17450
N2916       N  0.61245374  0.67385837  0.62856259    -0.89260
H2917       H  0.47896039  0.70239422  0.66920380     0.34830
H2918       H  0.49367457  0.71069165  0.70517285     0.39930
H2919       H  0.61627858  0.69327717  0.61260976     0.39550
H2920       H  0.60846254  0.65411921  0.61530707     0.34430
C2921       C  0.68452731  0.71784927  0.52505177    -0.27300
C2922       C  0.66198394  0.70218189  0.54412059    -0.15370
C2923       C  0.67316896  0.67918891  0.56764244     0.35260
C2924       C  0.70644428  0.67397339  0.57008543    -0.26740
C2925       C  0.72151125  0.67558731  0.54032237    -0.15980
C2926       C  0.71288864  0.70139247  0.51909226     0.36350
N2927       N  0.72457280  0.70281168  0.48697919    -0.90230
H2928       H  0.67725379  0.73646461  0.50740241     0.17460
H2929       H  0.71567205  0.65578496  0.58738203     0.17450
N2930       N  0.65279952  0.65496268  0.57976424    -0.89260
H2931       H  0.72695499  0.72654384  0.47936580     0.34830
H2932       H  0.70710033  0.69420562  0.47230758     0.39930
H2933       H  0.66579899  0.63770857  0.59374659     0.39550
H2934       H  0.64514768  0.64241482  0.56062047     0.34430
C2935       C  0.65467600  0.46945685  0.23489166    -0.27300
C2936       C  0.63943441  0.50005860  0.23593916    -0.15370
C2937       C  0.65713526  0.52461063  0.24808022     0.35260
C2938       C  0.68854954  0.51768438  0.25961633    -0.26740
C2939       C  0.70353631  0.48686782  0.25940535    -0.15980
C2940       C  0.68619250  0.46255985  0.24624022     0.36350
N2941       N  0.69941331  0.43048918  0.24451800    -0.90230
H2942       H  0.64119184  0.45005860  0.22674647     0.17460
H2943       H  0.70139047  0.53666918  0.26944683     0.17450
N2944       N  0.64356994  0.55645241  0.25058203    -0.89260
H2945       H  0.68544812  0.41560506  0.25885834     0.34830
H2946       H  0.72255507  0.42798273  0.25387608     0.39930
H2947       H  0.62053295  0.55887083  0.24094270     0.39550
H2948       H  0.65742780  0.57179706  0.23663634     0.34430
C2949       C  0.35323348  0.48235162  0.22568401    -0.27300
C2950       C  0.36094020  0.51036660  0.20787712    -0.15370
C2951       C  0.33711917  0.53610346  0.20712874     0.35260
C2952       C  0.31010034  0.53488434  0.22657429    -0.26740
C2953       C  0.30091741  0.50678130  0.24266716    -0.15980
C2954       C  0.32302710  0.47971829  0.24159845     0.36350
N2955       N  0.31546556  0.44983040  0.25710074    -0.90230
H2956       H  0.37070321  0.46247111  0.22725069     0.17460
H2957       H  0.29447617  0.55614271  0.22719938     0.17450
N2958       N  0.33902996  0.56430054  0.18651038    -0.89260
H2959       H  0.33459077  0.43307383  0.25553382     0.34830
H2960       H  0.29650632  0.44100513  0.24469244     0.39930
H2961       H  0.34626223  0.55803328  0.16382807     0.39550
H2962       H  0.35447405  0.58007206  0.19608973     0.34430
C2963       C  0.46745261  0.32572229  0.21730332    -0.27300
C2964       C  0.49576015  0.30850023  0.22772141    -0.15370
C2965       C  0.52510949  0.32307247  0.22078011     0.35260
C2966       C  0.52514177  0.35408790  0.20612596    -0.26740
C2967       C  0.49692295  0.37289433  0.19933882    -0.15980
C2968       C  0.46760018  0.35763593  0.20390199     0.36350
N2969       N  0.43742163  0.37466883  0.19799041    -0.90230
H2970       H  0.44471199  0.31502844  0.22118467     0.17460
H2971       H  0.54793656  0.36511075  0.20339994     0.17450
N2972       N  0.55566263  0.30757093  0.22864992    -0.89260
H2973       H  0.42535397  0.36276135  0.18077240     0.34830
H2974       H  0.44078329  0.39758610  0.18806355     0.39930
H2975       H  0.55352941  0.28442981  0.23815277     0.39550
H2976       H  0.56612640  0.32033934  0.24625230     0.34430
C2977       C  0.53921086  0.66418581  0.24642588    -0.27300
C2978       C  0.51991664  0.65490719  0.22117585    -0.15370
C2979       C  0.49479482  0.67714242  0.21070769     0.35260
C2980       C  0.48784672  0.70492301  0.22713592    -0.26740
C2981       C  0.50865354  0.71599827  0.24994365    -0.15980
C2982       C  0.53441482  0.69451582  0.26012782     0.36350
N2983       N  0.55526921  0.70271949  0.28502939    -0.90230
H2984       H  0.55694147  0.64710227  0.25691887     0.17460
H2985       H  0.46633445  0.71905288  0.22057769     0.17450
N2986       N  0.47321600  0.67022001  0.18554808    -0.89260
H2987       H  0.57863223  0.70185091  0.27632429     0.34830
H2988       H  0.55396364  0.68537911  0.30372377     0.39930
H2989       H  0.48178033  0.65041394  0.17362549     0.39550
H2990       H  0.47307758  0.68925397  0.16852788     0.34430
C2991       C  0.34257182  0.54984801  0.36309410    -0.27300
C2992       C  0.34184276  0.51725922  0.37231489    -0.15370
C2993       C  0.33022037  0.49587015  0.35046290     0.35260
C2994       C  0.32232415  0.50723000  0.31998624    -0.26740
C2995       C  0.33324710  0.53643049  0.30884083    -0.15980
C2996       C  0.33696851  0.55987740  0.33098833     0.36350
N2997       N  0.34114708  0.59228030  0.31985134    -0.90230
H2998       H  0.34865456  0.56692001  0.38024647     0.17460
H2999       H  0.31867636  0.48919977  0.30329982     0.17450
N3000       N  0.33079716  0.46186580  0.35638160    -0.89260
H3001       H  0.34527871  0.60633347  0.33906146     0.34830
H3002       H  0.31953203  0.60096935  0.30944777     0.39930
H3003       H  0.31290894  0.45542224  0.37231918     0.39550
H3004       H  0.35334809  0.45389034  0.36503560     0.34430
C3005       C  0.51889137  0.62085451  0.34551969    -0.27300
C3006       C  0.48773074  0.63165041  0.33717980    -0.15370
C3007       C  0.47538921  0.66172282  0.34519029     0.35260
C3008       C  0.49307266  0.67848634  0.36626043    -0.26740
C3009       C  0.52165084  0.66445460  0.37891955    -0.15980
C3010       C  0.53595690  0.63718523  0.36691214     0.36350
N3011       N  0.56663443  0.62504651  0.37836476    -0.90230
H3012       H  0.52854458  0.59814495  0.33798456     0.17460
H3013       H  0.48304662  0.70032079  0.37552856     0.17450
N3014       N  0.44400343  0.67320197  0.33478140    -0.89260
H3015       H  0.58200131  0.62384111  0.35890305     0.34830
H3016       H  0.56414414  0.60201566  0.38843558     0.39930
H3017       H  0.44475020  0.67712437  0.31004160     0.39550
H3018       H  0.43819592  0.69531457  0.34403966     0.34430
C3019       C  0.58706840  0.50720798  0.39594027    -0.27300
C3020       C  0.57697519  0.52671473  0.36967784    -0.15370
C3021       C  0.59599547  0.55162588  0.35772883     0.35260
C3022       C  0.62268705  0.55913268  0.37537496    -0.26740
C3023       C  0.63133891  0.54071773  0.40299271    -0.15980
C3024       C  0.61466098  0.51347882  0.41217454     0.36350
N3025       N  0.62594574  0.49204024  0.43793363    -0.90230
H3026       H  0.57400368  0.48639706  0.40329097     0.17460
H3027       H  0.63609116  0.57967607  0.36800865     0.17450
N3028       N  0.58888948  0.56971773  0.32830712    -0.89260
H3029       H  0.63010291  0.46943929  0.42911470     0.34830
H3030       H  0.60789136  0.49048408  0.45498528     0.39930
H3031       H  0.56861492  0.56198524  0.31714225     0.39550
H3032       H  0.60799309  0.56567781  0.31286493     0.34430
C3033       C  0.45894608  0.26476855  0.64013085    -0.27300
C3034       C  0.48794287  0.26239998  0.62312438    -0.15370
C3035       C  0.51537882  0.27432800  0.63735883     0.35260
C3036       C  0.51288310  0.28782782  0.66752696    -0.26740
C3037       C  0.48358504  0.29054472  0.68410322    -0.15980
C3038       C  0.45632539  0.27926630  0.66953297     0.36350
N3039       N  0.42588844  0.28227704  0.68505742    -0.90230
H3040       H  0.43739550  0.25692542  0.62925915     0.17460
H3041       H  0.53449620  0.29510632  0.67832561     0.17450
N3042       N  0.54588157  0.27409701  0.62179705    -0.89260
H3043       H  0.40804032  0.27279948  0.67152412     0.34830
H3044       H  0.41991646  0.30661739  0.68627079     0.39930
H3045       H  0.54500666  0.26327996  0.60012633     0.39550
H3046       H  0.56193010  0.25992618  0.63621011     0.34430
C3047       C  0.46822126  0.25542361  0.32875876    -0.27300
C3048       C  0.49624153  0.24052089  0.34271529    -0.15370
C3049       C  0.52327234  0.23700790  0.32267501     0.35260
C3050       C  0.52261516  0.25015395  0.29119769    -0.26740
C3051       C  0.49491679  0.26493596  0.27693909    -0.15980
C3052       C  0.46700592  0.26661221  0.29598631     0.36350
N3053       N  0.43778793  0.28058057  0.28235502    -0.90230
H3054       H  0.44775262  0.25993635  0.34382827     0.17460
H3055       H  0.54429874  0.24802470  0.27756323     0.17450
N3056       N  0.55268146  0.22122855  0.33406519    -0.89260
H3057       H  0.41969582  0.28078221  0.29942499     0.34830
H3058       H  0.43057654  0.26585249  0.26472188     0.39930
H3059       H  0.55011055  0.21028425  0.35675120     0.39550
H3060       H  0.56964941  0.23853402  0.33564416     0.34430
C3061       C  0.34151656  0.22533788  0.49944764    -0.27300
C3062       C  0.35659826  0.22793881  0.46951578    -0.15370
C3063       C  0.33853050  0.24403787  0.44435547     0.35260
C3064       C  0.30850721  0.25955428  0.45029601    -0.26740
C3065       C  0.29520780  0.25997378  0.48101251    -0.15980
C3066       C  0.31206878  0.24170410  0.50581749     0.36350
N3067       N  0.30093090  0.24011953  0.53811982    -0.90230
H3068       H  0.35498204  0.21419314  0.51948467     0.17460
H3069       H  0.29523461  0.27131761  0.43047996     0.17450
N3070       N  0.35123352  0.24696971  0.41270651    -0.89260
H3071       H  0.29810536  0.21614832  0.54497190     0.34830
H3072       H  0.27857733  0.25176799  0.54009996     0.39930
H3073       H  0.37302926  0.23391838  0.41133412     0.39550
H3074       H  0.35584480  0.27096074  0.40776211     0.34430
C3075       C  0.65797766  0.25230453  0.47945539    -0.27300
C3076       C  0.63869015  0.24911677  0.50677875    -0.15370
C3077       C  0.65283705  0.25639379  0.53610595     0.35260
C3078       C  0.68476812  0.26698655  0.53681211    -0.26740
C3079       C  0.70260432  0.27310937  0.50871536    -0.15980
C3080       C  0.68808318  0.26610162  0.47958080     0.36350
N3081       N  0.70198426  0.27581610  0.44966142    -0.90230
H3082       H  0.64745134  0.24787118  0.45662903     0.17460
H3083       H  0.69528145  0.27171373  0.55952573     0.17450
N3084       N  0.63538301  0.25417398  0.56539821    -0.89260
H3085       H  0.68746632  0.27067405  0.43053316     0.34830
H3086       H  0.72352385  0.26315455  0.44682002     0.39930
H3087       H  0.61273188  0.24561497  0.56176793     0.39550
H3088       H  0.63199702  0.27724422  0.57328766     0.34430
C3089       C  0.42395292  0.36020004  0.34811832    -0.27300
C3090       C  0.45580552  0.34879125  0.34385375    -0.15370
C3091       C  0.46700818  0.34535217  0.31278316     0.35260
C3092       C  0.44782033  0.35925283  0.28775255    -0.26740
C3093       C  0.42570085  0.38375850  0.29574625    -0.15980
C3094       C  0.40782866  0.37722997  0.32303878     0.36350
N3095       N  0.37781676  0.39387154  0.32844607    -0.90230
H3096       H  0.41345796  0.35984719  0.37125256     0.17460
H3097       H  0.45842045  0.36119153  0.26461750     0.17450
N3098       N  0.49909212  0.33327071  0.30725227    -0.89260
H3099       H  0.36092830  0.37669313  0.33295251     0.34830
H3100       H  0.37037660  0.40697331  0.30764904     0.39930
H3101       H  0.51475767  0.34895052  0.31672213     0.39550
H3102       H  0.50378707  0.33403679  0.28293813     0.34430
C3103       C  0.36711544  0.39809052  0.41063019    -0.27300
C3104       C  0.36243340  0.36540049  0.41586238    -0.15370
C3105       C  0.33714547  0.35971860  0.43675825     0.35260
C3106       C  0.33804408  0.37551128  0.46519784    -0.26740
C3107       C  0.35952550  0.40047450  0.46767009    -0.15980
C3108       C  0.37177444  0.41437287  0.43865952     0.36350
N3109       N  0.39190515  0.44114178  0.43811282    -0.90230
H3110       H  0.37893790  0.40620185  0.38909608     0.17460
H3111       H  0.32374542  0.36728846  0.48517302     0.17450
N3112       N  0.31781043  0.33289876  0.43419067    -0.89260
H3113       H  0.39809670  0.44789280  0.41472756     0.34830
H3114       H  0.41324069  0.43359044  0.44978294     0.39930
H3115       H  0.32196599  0.32304621  0.41220123     0.39550
H3116       H  0.29413810  0.34178549  0.43370630     0.34430
C3117       C  0.52640990  0.37917221  0.59742304    -0.27300
C3118       C  0.49389165  0.37334089  0.59661042    -0.15370
C3119       C  0.47503772  0.37654706  0.62388139     0.35260
C3120       C  0.48736008  0.39217510  0.64918923    -0.26740
C3121       C  0.51787295  0.40411576  0.64674540    -0.15980
C3122       C  0.53882246  0.39489906  0.62246500     0.36350
N3123       N  0.57137036  0.40430410  0.62072185    -0.90230
H3124       H  0.54149380  0.37357722  0.57747567     0.17460
H3125       H  0.47173628  0.39864964  0.66856363     0.17450
N3126       N  0.44269710  0.36693424  0.62464861    -0.89260
H3127       H  0.58605076  0.38348483  0.62044776     0.34830
H3128       H  0.57777041  0.41554630  0.64116231     0.39930
H3129       H  0.42774541  0.38700486  0.62837287     0.39550
H3130       H  0.44044976  0.35074491  0.64420066     0.34430
C3131       C  0.58836817  0.40932685  0.53563757    -0.27300
C3132       C  0.59996471  0.38462214  0.51703799    -0.15370
C3133       C  0.63169218  0.38354476  0.50631749     0.35260
C3134       C  0.64892699  0.41068493  0.50879334    -0.26740
C3135       C  0.63476558  0.43757660  0.52235847    -0.15980
C3136       C  0.60532189  0.43653284  0.53765800     0.36350
N3137       N  0.59283980  0.46299788  0.55487462    -0.90230
H3138       H  0.56424293  0.40959002  0.54469647     0.17460
H3139       H  0.67300829  0.41129731  0.49940506     0.17450
N3140       N  0.64517287  0.35631637  0.49090553    -0.89260
H3141       H  0.57130209  0.45749303  0.56592148     0.34830
H3142       H  0.58744973  0.48194933  0.53829060     0.39930
H3143       H  0.64628285  0.33704714  0.50776035     0.39550
H3144       H  0.66870625  0.36007011  0.48392090     0.34430
loop_ 
_geom_bond_atom_site_label_1 
_geom_bond_atom_site_label_2 
_geom_bond_distance 
_geom_bond_site_symmetry_2 
_ccdc_geom_bond_type 
N1            N2   1.313       .  A
N1            N7   1.307       .  A
N1          Mn30   2.122       .  S
N2            C9   1.337       .  A
N3            N5   1.302       .  A
N3            N4   1.308       .  A
N3          Mn19   2.147       .  S
N4           C10   1.353       .  A
N5            N6   1.318       .  A
N5          Mn30   2.137       .  S
N6           C10   1.355       .  A
N7            N8   1.317       .  A
N7          Mn19   2.182       .  S
N8            C9   1.352       .  A
C9         C3118   1.447       .  S
C10        C3104   1.492       .  S
N11          N17   1.310       .  A
N11          N12   1.321       .  A
N11         Mn41   2.173       .  S
N12          C20   1.347       .  A
N13          N14   1.304       .  A
N13          N15   1.308       .  A
N13         Mn19   2.112       .  S
N14          C21   1.342       .  A
N15          N16   1.315       .  A
N15         Mn41   2.155       .  S
N16          C21   1.347       .  A
N17          N18   1.311       .  A
N17         Mn19   2.152       .  S
N18          C20   1.339       .  A
Mn19        Cl43   2.547       .  S
C20        C3090   1.459       .  S
C21        C3132   1.438       .  S
N22          N23   1.296       .  A
N22          N28   1.310       .  A
N22         Mn30   2.036       .  S
N23          C31   1.314       .  A
N24          N26   1.319       .  A
N24          N25   1.344       .  A
N24         Mn42   2.340       .  S
N25          C32   1.381       .  A
N26          N27   1.305       .  A
N26         Mn30   2.130       .  S
N27          C32   1.329       .  A
N28          N29   1.348       .  A
N28         Mn42   2.354       .  S
N29          C31   1.386       .  A
Mn30        Cl43   2.499       .  S
C31        C3062   1.487       .  S
C32        C3034   1.504       .  S
N33          N34   1.304       .  A
N33          N39   1.316       .  A
N33         Mn41   2.101       .  S
N34          C44   1.328       .  A
N35          N36   1.346       .  A
N35          N37   1.319       .  A
N35         Mn42   2.351       .  S
N36          C45   1.381       .  A
N37          N38   1.306       .  A
N37         Mn41   2.121       .  S
N38          C45   1.328       .  A
N39          N40   1.350       .  A
N39         Mn42   2.373       .  S
N40          C44   1.387       .  A
Mn41        Cl43   2.500       .  S
Mn42        Cl43   2.540       .  S
C44        C3076   1.516       .  S
C45        C3048   1.504       .  S
N46          N47   1.327       .  A
N46          N52   1.308       .  A
N46         Mn75   2.181       .  S
N47          C54   1.359       .  A
N48          N50   1.310       .  A
N48          N49   1.307       .  A
N48         Mn64   2.107       .  S
N49          C55   1.335       .  A
N50          N51   1.322       .  A
N50         Mn75   2.204       .  S
N51          C55   1.355       .  A
N52          N53   1.305       .  A
N52         Mn64   2.136       .  S
N53          C54   1.341       .  A
C54        C3093   1.478       .  S
C55        C3020   1.438       .  S
N56          N62   1.317       .  A
N56          N57   1.338       .  A
N56         Mn86   2.318       .  S
N57          C65   1.375       .  A
N58          N59   1.304       .  A
N58          N60   1.311       .  A
N58         Mn64   2.095       .  S
N59          C66   1.326       .  A
N60          N61   1.347       .  A
N60         Mn86   2.343       .  S
N61          C66   1.385       .  A
N62          N63   1.312       .  A
N62         Mn64   2.142       .  S
N63          C65   1.338       .  A
Mn64        Cl88   2.518       .  S
C65        C2936   1.497       .  S
C66        C2967   1.504       .  S
N67          N68   1.310       .  A
N67          N73   1.309       .  A
N67         Mn75   2.159       .  S
N68          C76   1.349       .  A
N69          N71   1.315       .  A
N69          N70   1.320       .  A
N69         Mn87   2.142       .  S
N70          C77   1.345       .  A
N71          N72   1.298       .  A
N71         Mn75   2.157       .  S
N72          C77   1.344       .  A
N73          N74   1.313       .  A
N73         Mn87   2.136       .  S
N74          C76   1.340       .  A
Mn75        Cl88   2.490       .  S
C76        C3006   1.430       .  S
C77        C2995   1.442       .  S
N78          N79   1.350       .  A
N78          N84   1.308       .  A
N78         Mn86   2.361       .  S
N79          C89   1.385       .  A
N80          N81   1.297       .  A
N80          N82   1.312       .  A
N80         Mn87   2.022       .  S
N81          C90   1.317       .  A
N82          N83   1.353       .  A
N82         Mn86   2.407       .  S
N83          C90   1.391       .  A
N84          N85   1.302       .  A
N84         Mn87   2.140       .  S
N85          C89   1.327       .  A
Mn86        Cl88   2.456       .  S
Mn87        Cl88   2.575       .  S
C89        C2950   1.532       .  S
C90        C2978   1.506       .  S
N91          N92   1.310       .  A
N91          N97   1.311       .  A
N91        Mn120   2.144       .  S
N92          C99   1.340       .  A
N93          N95   1.311       .  A
N93          N94   1.327       .  A
N93        Mn109   2.203       .  S
N94         C100   1.357       .  A
N95          N96   1.308       .  A
N95        Mn120   2.134       .  S
N96         C100   1.337       .  A
N97          N98   1.321       .  A
N97        Mn109   2.173       .  S
N98          C99   1.350       .  A
C99        C2894   1.460       .  S
C100       C2908   1.476       .  S
N101        N107   1.307       .  A
N101        N102   1.291       .  A
N101       Mn131   2.112       .  S
N102        C110   1.331       .  A
N103        N104   1.316       .  A
N103        N105   1.310       .  A
N103       Mn109   2.197       .  S
N104        C111   1.353       .  A
N105        N106   1.307       .  A
N105       Mn131   2.093       .  S
N106        C111   1.330       .  A
N107        N108   1.323       .  A
N107       Mn109   2.147       .  S
N108        C110   1.353       .  A
Mn109      Cl133   2.542       .  S
C110       C2922   1.451       .  S
C111       C3009   1.422       .  S
N112        N113   1.303       .  A
N112        N118   1.313       .  A
N112       Mn120   2.111       .  S
N113        C121   1.329       .  A
N114        N116   1.314       .  A
N114        N115   1.352       .  A
N114       Mn132   2.384       .  S
N115        C122   1.390       .  A
N116        N117   1.303       .  A
N116       Mn120   2.097       .  S
N117        C122   1.329       .  A
N118        N119   1.349       .  A
N118       Mn132   2.353       .  S
N119        C121   1.386       .  A
Mn120      Cl133   2.520       .  S
C121       C2852   1.519       .  S
C122       C2866   1.530       .  S
N123        N124   1.305       .  A
N123        N129   1.313       .  A
N123       Mn131   2.088       .  S
N124        C134   1.329       .  A
N125        N126   1.357       .  A
N125        N127   1.312       .  A
N125       Mn132   2.408       .  S
N126        C135   1.395       .  A
N127        N128   1.306       .  A
N127       Mn131   2.096       .  S
N128        C135   1.325       .  A
N129        N130   1.345       .  A
N129       Mn132   2.349       .  S
N130        C134   1.382       .  A
Mn131      Cl133   2.518       .  S
Mn132      Cl133   2.509       .  S
C134       C2880   1.505       .  S
C135       C2841   1.538       .  S
N136        N137   1.321       .  A
N136        N142   1.313       .  A
N136       Mn165   2.199       .  S
N137        C144   1.354       .  A
N138        N140   1.310       .  A
N138        N139   1.299       .  A
N138       Mn154   2.106       .  S
N139        C145   1.338       .  A
N140        N141   1.315       .  A
N140       Mn165   2.146       .  S
N141        C145   1.342       .  A
N142        N143   1.305       .  A
N142       Mn154   2.131       .  S
N143        C144   1.340       .  A
C144       C3023   1.447       .  S
C145       C2925   1.442       .  S
N146        N152   1.307       .  A
N146        N147   1.304       .  A
N146       Mn176   2.157       .  S
N147        C155   1.346       .  A
N148        N149   1.317       .  A
N148        N150   1.306       .  A
N148       Mn154   2.149       .  S
N149        C156   1.352       .  A
N150        N151   1.300       .  A
N150       Mn176   2.089       .  S
N151        C156   1.329       .  A
N152        N153   1.321       .  A
N152       Mn154   2.170       .  S
N153        C155   1.354       .  A
Mn154      Cl178   2.505       .  S
C155       C2827   1.457       .  S
C156       C3135   1.417       .  S
N157        N158   1.311       .  A
N157        N163   1.314       .  A
N157       Mn165   2.151       .  S
N158        C166   1.337       .  A
N159        N161   1.318       .  A
N159        N160   1.348       .  A
N159       Mn177   2.385       .  S
N160        C167   1.383       .  A
N161        N162   1.308       .  A
N161       Mn165   2.108       .  S
N162        C167   1.336       .  A
N163        N164   1.350       .  A
N163       Mn177   2.358       .  S
N164        C166   1.384       .  A
Mn165      Cl178   2.572       .  S
C166       C2768   1.537       .  S
C167       C2810   1.523       .  S
N168        N169   1.307       .  A
N168        N174   1.312       .  A
N168       Mn176   2.066       .  S
N169        C179   1.331       .  A
N170        N171   1.357       .  A
N170        N172   1.300       .  A
N170       Mn177   2.389       .  S
N171        C180   1.396       .  A
N172        N173   1.299       .  A
N172       Mn176   2.102       .  S
N173        C180   1.325       .  A
N174        N175   1.346       .  A
N174       Mn177   2.387       .  S
N175        C179   1.385       .  A
Mn176      Cl178   2.526       .  S
Mn177      Cl178   2.412       .  S
C179       C2796   1.506       .  S
C180       C2782   1.551       .  S
N181        N182   1.314       .  A
N181        N187   1.309       .  A
N181       Mn210   2.133       .  S
N182        C189   1.338       .  A
N183        N185   1.310       .  A
N183        N184   1.325       .  A
N183       Mn199   2.190       .  S
N184        C190   1.357       .  A
N185        N186   1.300       .  A
N185       Mn210   2.119       .  S
N186        C190   1.330       .  A
N187        N188   1.314       .  A
N187       Mn199   2.173       .  S
N188        C189   1.351       .  A
C189       C3121   1.435       .  S
C190       C2824   1.439       .  S
N191        N197   1.312       .  A
N191        N192   1.310       .  A
N191       Mn221   2.118       .  S
N192        C200   1.333       .  A
N193        N194   1.323       .  A
N193        N195   1.314       .  A
N193       Mn199   2.190       .  S
N194        C201   1.355       .  A
N195        N196   1.305       .  A
N195       Mn221   2.142       .  S
N196        C201   1.335       .  A
N197        N198   1.314       .  A
N197       Mn199   2.170       .  S
N198        C200   1.346       .  A
Mn199      Cl223   2.529       .  S
C200       C2911   1.440       .  S
C201       C2754   1.459       .  S
N202        N203   1.306       .  A
N202        N208   1.307       .  A
N202       Mn210   2.076       .  S
N203        C211   1.324       .  A
N204        N206   1.312       .  A
N204        N205   1.352       .  A
N204       Mn222   2.386       .  S
N205        C212   1.389       .  A
N206        N207   1.300       .  A
N206       Mn210   2.072       .  S
N207        C212   1.328       .  A
N208        N209   1.354       .  A
N208       Mn222   2.396       .  S
N209        C211   1.392       .  A
Mn210      Cl223   2.538       .  S
C211       C2712   1.529       .  S
C212       C2740   1.530       .  S
N213        N214   1.308       .  A
N213        N219   1.313       .  A
N213       Mn221   2.109       .  S
N214        C224   1.331       .  A
N215        N216   1.345       .  A
N215        N217   1.317       .  A
N215       Mn222   2.353       .  S
N216        C225   1.381       .  A
N217        N218   1.314       .  A
N217       Mn221   2.150       .  S
N218        C225   1.335       .  A
N219        N220   1.347       .  A
N219       Mn222   2.352       .  S
N220        C224   1.382       .  A
Mn221      Cl223   2.547       .  S
Mn222      Cl223   2.465       .  S
C224       C2726   1.512       .  S
C225       C2698   1.521       .  S
N226        N227   1.315       .  A
N226        N232   1.306       .  A
N226       Mn255   2.167       .  S
N227        C234   1.352       .  A
N228        N230   1.304       .  A
N228        N229   1.295       .  A
N228       Mn244   2.139       .  S
N229        C235   1.328       .  A
N230        N231   1.326       .  A
N230       Mn255   2.142       .  S
N231        C235   1.360       .  A
N232        N233   1.304       .  A
N232       Mn244   2.183       .  S
N233        C234   1.334       .  A
C234       C3107   1.467       .  S
C235       C2992   1.456       .  S
N236        N242   1.317       .  A
N236        N237   1.339       .  A
N236       Mn266   2.272       .  S
N237        C245   1.373       .  A
N238        N239   1.303       .  A
N238        N240   1.307       .  A
N238       Mn244   2.059       .  S
N239        C246   1.319       .  A
N240        N241   1.351       .  A
N240       Mn266   2.370       .  S
N241        C246   1.390       .  A
N242        N243   1.317       .  A
N242       Mn244   2.224       .  S
N243        C245   1.345       .  A
Mn244      Cl268   2.376       .  S
C245       C2656   1.517       .  S
C246       C2684   1.511       .  S
N247        N248   1.312       .  A
N247        N253   1.307       .  A
N247       Mn255   2.120       .  S
N248        C256   1.344       .  A
N249        N251   1.317       .  A
N249        N250   1.320       .  A
N249       Mn267   2.192       .  S
N250        C257   1.348       .  A
N251        N252   1.315       .  A
N251       Mn255   2.143       .  S
N252        C257   1.342       .  A
N253        N254   1.316       .  A
N253       Mn267   2.174       .  S
N254        C256   1.350       .  A
Mn255      Cl268   2.570       .  S
C256       C2897   1.458       .  S
C257       C2757   1.470       .  S
N258        N259   1.345       .  A
N258        N264   1.317       .  A
N258       Mn266   2.325       .  S
N259        C269   1.380       .  A
N260        N261   1.304       .  A
N260        N262   1.318       .  A
N260       Mn267   2.088       .  S
N261        C270   1.324       .  A
N262        N263   1.349       .  A
N262       Mn266   2.390       .  S
N263        C270   1.387       .  A
N264        N265   1.298       .  A
N264       Mn267   2.118       .  S
N265        C269   1.330       .  A
Mn266      Cl268   2.567       .  S
Mn267      Cl268   2.463       .  S
C269       C2645   1.508       .  S
C270       C2670   1.511       .  S
N271        N272   1.312       .  A
N271        N277   1.314       .  A
N271       Mn300   2.187       .  S
N272        C279   1.348       .  A
N273        N275   1.305       .  A
N273        N274   1.308       .  A
N273       Mn289   2.134       .  S
N274        C280   1.338       .  A
N275        N276   1.316       .  A
N275       Mn300   2.135   1_554  S
N276        C280   1.349       .  A
N277        N278   1.321       .  A
N277       Mn289   2.167   1_556  S
N278        C279   1.352       .  A
C279       C2589   1.463       .  S
C280       C2614   1.445       .  S
N281        N287   1.318       .  A
N281        N282   1.310       .  A
N281       Mn311   2.141       .  S
N282        C290   1.336       .  A
N283        N284   1.310       .  A
N283        N285   1.311       .  A
N283       Mn289   2.144       .  S
N284        C291   1.342       .  A
N285        N286   1.324       .  A
N285       Mn311   2.180       .  S
N286        C291   1.349       .  A
N287        N288   1.317       .  A
N287       Mn289   2.192       .  S
N288        C290   1.342       .  A
Mn289      Cl313   2.501       .  S
C290       C2600   1.445       .  S
C291       C2628   1.459       .  S
N292        N293   1.314       .  A
N292        N298   1.316   1_556  A
N292       Mn300   2.169       .  S
N293        C301   1.342   1_556  A
N294        N296   1.311       .  A
N294        N295   1.343       .  A
N294       Mn312   2.318   1_556  S
N295        C302   1.380       .  A
N296        N297   1.308       .  A
N296       Mn300   2.130       .  S
N297        C302   1.339       .  A
N298        N299   1.341       .  A
N298       Mn312   2.314       .  S
N299        C301   1.376       .  A
Mn300      Cl313   2.516   1_556  S
C301       C2530   1.512       .  S
C302       C2575   1.518       .  S
N303        N304   1.304       .  A
N303        N309   1.321   1_554  A
N303       Mn311   2.080       .  S
N304        C314   1.330   1_554  A
N305        N306   1.355       .  A
N305        N307   1.310       .  A
N305       Mn312   2.386       .  S
N306        C315   1.392       .  A
N307        N308   1.313       .  A
N307       Mn311   2.148       .  S
N308        C315   1.338       .  A
N309        N310   1.346       .  A
N309       Mn312   2.354   1_556  S
N310        C314   1.375       .  A
Mn311      Cl313   2.575       .  S
Mn312      Cl313   2.476       .  S
C314       C2544   1.501       .  S
C315       C2558   1.566       .  S
N316        N317   1.314       .  A
N316        N322   1.310       .  A
N316       Mn345   2.153   1_655  S
N317        C324   1.348       .  A
N318        N320   1.311       .  A
N318        N319   1.313       .  A
N318       Mn334   2.143       .  S
N319        C325   1.337   1_655  A
N320        N321   1.318   1_655  A
N320       Mn345   2.163   1_655  S
N321        C325   1.344       .  A
N322        N323   1.319       .  A
N322       Mn334   2.176       .  S
N323        C324   1.349       .  A
C324       C2586   1.465       .  S
C325       C2502   1.453       .  S
N326        N332   1.316       .  A
N326        N327   1.343   1_655  A
N326       Mn356   2.313   1_655  S
N327        C335   1.380   1_455  A
N328        N329   1.300       .  A
N328        N330   1.313       .  A
N328       Mn334   2.069       .  S
N329        C336   1.325       .  A
N330        N331   1.343       .  A
N330       Mn356   2.348   1_655  S
N331        C336   1.382       .  A
N332        N333   1.307       .  A
N332       Mn334   2.172       .  S
N333        C335   1.336       .  A
Mn334      Cl358   2.496   1_655  S
C335       C2449   1.520       .  S
C336       C2474   1.485       .  S
N337        N338   1.313       .  A
N337        N343   1.306       .  A
N337       Mn345   2.149       .  S
N338        C346   1.350       .  A
N339        N341   1.308       .  A
N339        N340   1.311       .  A
N339       Mn357   2.132       .  S
N340        C347   1.342       .  A
N341        N342   1.314       .  A
N341       Mn345   2.164       .  S
N342        C347   1.351       .  A
N343        N344   1.317       .  A
N343       Mn357   2.175       .  S
N344        C346   1.353       .  A
Mn345      Cl358   2.542       .  S
C346       C2488   1.482       .  S
C347       C2519   1.452       .  S
N348        N349   1.338       .  A
N348        N354   1.319       .  A
N348       Mn356   2.307       .  S
N349        C359   1.372       .  A
N350        N351   1.298       .  A
N350        N352   1.310       .  A
N350       Mn357   2.054       .  S
N351        C360   1.316       .  A
N352        N353   1.352       .  A
N352       Mn356   2.363       .  S
N353        C360   1.390       .  A
N354        N355   1.311       .  A
N354       Mn357   2.154       .  S
N355        C359   1.341       .  A
Mn356      Cl358   2.554       .  S
Mn357      Cl358   2.479       .  S
C359       C2463   1.498       .  S
C360       C2432   1.504       .  S
N361        N362   1.347       .  A
N361        N367   1.312       .  A
N361       Mn390   2.330       .  S
N362        C369   1.381       .  A
N363        N365   1.319       .  A
N363        N364   1.310       .  A
N363       Mn379   2.156       .  S
N364        C370   1.333       .  A
N365        N366   1.343       .  A
N365       Mn390   2.326       .  S
N366        C370   1.378       .  A
N367        N368   1.298       .  A
N367       Mn379   2.093       .  S
N368        C369   1.326       .  A
C369       C2337   1.500       .  S
C370       C2362   1.505       .  S
N371        N377   1.313       .  A
N371        N372   1.322       .  A
N371       Mn401   2.234       .  S
N372        C380   1.348       .  A
N373        N374   1.312       .  A
N373        N375   1.310       .  A
N373       Mn379   2.149       .  S
N374        C381   1.340       .  A
N375        N376   1.317       .  A
N375       Mn401   2.176       .  S
N376        C381   1.351       .  A
N377        N378   1.310       .  A
N377       Mn379   2.130       .  S
N378        C380   1.331       .  A
Mn379      Cl403   2.513       .  S
C380       C2418   1.434   1_556  S
C381       C2491   1.459       .  S
N382        N383   1.346       .  A
N382        N388   1.311       .  A
N382       Mn390   2.340   1_554  S
N383        C391   1.383       .  A
N384        N386   1.321       .  A
N384        N385   1.320       .  A
N384       Mn402   2.218       .  S
N385        C392   1.347   1_554  A
N386        N387   1.339   1_554  A
N386       Mn390   2.303   1_554  S
N387        C392   1.372       .  A
N388        N389   1.302       .  A
N388       Mn402   2.073       .  S
N389        C391   1.322       .  A
Mn390      Cl403   2.566       .  S
C391       C2348   1.492       .  S
C392       C2376   1.529       .  S
N393        N394   1.328   1_554  A
N393        N399   1.310       .  A
N393       Mn401   2.223   1_554  S
N394        C404   1.360       .  A
N395        N396   1.322       .  A
N395        N397   1.313       .  A
N395       Mn402   2.174       .  S
N396        C405   1.352       .  A
N397        N398   1.311       .  A
N397       Mn401   2.167   1_554  S
N398        C405   1.344       .  A
N399        N400   1.302       .  A
N399       Mn402   2.111       .  S
N400        C404   1.329   1_554  A
Mn401      Cl403   2.531       .  S
Mn402      Cl403   2.515   1_554  S
C404       C2407   1.459       .  S
C405       C2393   1.466       .  S
N406        N407   1.323       .  A
N406        N412   1.308       .  A
N406       Mn435   2.174       .  S
N407        C414   1.357       .  A
N408        N410   1.310       .  A
N408        N409   1.305       .  A
N408       Mn424   2.112       .  S
N409        C415   1.329       .  A
N410        N411   1.322       .  A
N410       Mn435   2.201       .  S
N411        C415   1.354       .  A
N412        N413   1.296       .  A
N412       Mn424   2.106       .  S
N413        C414   1.325       .  A
C414       C2603   1.440       .  S
C415       C2323   1.443       .  S
N416        N422   1.318       .  A
N416        N417   1.347   1_655  A
N416       Mn446   2.390   1_655  S
N417        C425   1.386   1_455  A
N418        N419   1.305       .  A
N418        N420   1.308       .  A
N418       Mn424   2.081       .  S
N419        C426   1.324       .  A
N420        N421   1.355       .  A
N420       Mn446   2.396   1_655  S
N421        C426   1.394       .  A
N422        N423   1.307       .  A
N422       Mn424   2.101       .  S
N423        C425   1.330       .  A
Mn424      Cl448   2.512       .  S
C425       C2278   1.513       .  S
C426       C2250   1.535       .  S
N427        N428   1.323       .  A
N427        N433   1.311       .  A
N427       Mn435   2.198   1_455  S
N428        C436   1.353       .  A
N429        N431   1.308   1_455  A
N429        N430   1.305       .  A
N429       Mn447   2.120       .  S
N430        C437   1.333   1_455  A
N431        N432   1.330       .  A
N431       Mn435   2.216       .  S
N432        C437   1.363       .  A
N433        N434   1.312       .  A
N433       Mn447   2.142       .  S
N434        C436   1.343       .  A
Mn435      Cl448   2.559       .  S
C436       C2390   1.471       .  S
C437       C2306   1.471       .  S
N438        N439   1.342       .  A
N438        N444   1.317       .  A
N438       Mn446   2.311       .  S
N439        C449   1.377       .  A
N440        N441   1.305       .  A
N440        N442   1.315       .  A
N440       Mn447   2.084       .  S
N441        C450   1.325       .  A
N442        N443   1.347       .  A
N442       Mn446   2.373       .  S
N443        C450   1.386       .  A
N444        N445   1.310       .  A
N444       Mn447   2.162       .  S
N445        C449   1.333       .  A
Mn446      Cl448   2.519   1_455  S
Mn447      Cl448   2.494   1_455  S
C449       C2295   1.505       .  S
C450       C2267   1.501       .  S
N451        N452   1.342       .  A
N451        N457   1.313   1_554  A
N451       Mn480   2.339   1_654  S
N452        C459   1.379       .  A
N453        N455   1.316       .  A
N453        N454   1.311       .  A
N453       Mn469   2.161       .  S
N454        C460   1.334       .  A
N455        N456   1.342   1_655  A
N455       Mn480   2.313   1_655  S
N456        C460   1.378   1_455  A
N457        N458   1.307   1_556  A
N457       Mn469   2.092       .  S
N458        C459   1.331       .  A
C459       C2197   1.494       .  S
C460       C2208   1.504       .  S
N461        N467   1.307   1_455  A
N461        N462   1.326       .  A
N461       Mn491   2.177       .  S
N462        C470   1.359       .  A
N463        N464   1.310   1_556  A
N463        N465   1.311   1_556  A
N463       Mn469   2.114       .  S
N464        C471   1.340       .  A
N465        N466   1.314       .  A
N465       Mn491   2.185   1_654  S
N466        C471   1.349       .  A
N467        N468   1.296       .  A
N467       Mn469   2.101       .  S
N468        C470   1.325   1_655  A
Mn469      Cl493   2.509   1_655  S
C470       C2505   1.447       .  S
C471       C2617   1.447       .  S
N472        N473   1.352       .  A
N472        N478   1.307   1_556  A
N472       Mn480   2.378       .  S
N473        C481   1.390       .  A
N474        N476   1.316       .  A
N474        N475   1.301       .  A
N474       Mn492   2.078       .  S
N475        C482   1.326       .  A
N476        N477   1.348   1_455  A
N476       Mn480   2.379   1_554  S
N477        C482   1.384   1_655  A
N478        N479   1.298       .  A
N478       Mn492   2.064       .  S
N479        C481   1.321   1_554  A
Mn480      Cl493   2.481       .  S
C481       C2222   1.519       .  S
C482       C2236   1.508       .  S
N483        N484   1.318       .  A
N483        N489   1.310       .  A
N483       Mn491   2.186   1_554  S
N484        C494   1.349       .  A
N485        N486   1.311       .  A
N485        N487   1.309       .  A
N485       Mn492   2.171   1_556  S
N486        C495   1.352       .  A
N487        N488   1.318       .  A
N487       Mn491   2.174       .  S
N488        C495   1.358       .  A
N489        N490   1.316       .  A
N489       Mn492   2.144       .  S
N490        C494   1.337       .  A
Mn491      Cl493   2.530       .  S
Mn492      Cl493   2.534   1_554  S
C494       C2309   1.454       .  S
C495       C2404   1.463       .  S
N496        N497   1.324       .  A
N496        N502   1.312       .  A
N496       Mn525   2.178   1_655  S
N497        C504   1.350       .  A
N498        N500   1.308   1_556  A
N498        N499   1.308       .  A
N498       Mn514   2.146   1_455  S
N499        C505   1.346       .  A
N500        N501   1.318   1_554  A
N500       Mn525   2.155       .  S
N501        C505   1.350       .  A
N502        N503   1.311       .  A
N502       Mn514   2.163   1_554  S
N503        C504   1.345       .  A
C504       C2631   1.462       .  S
C505       C2516   1.441       .  S
N506        N512   1.315       .  A
N506        N507   1.338       .  A
N506       Mn536   2.302   1_556  S
N507        C515   1.373       .  A
N508        N509   1.316       .  A
N508        N510   1.314       .  A
N508       Mn514   2.167       .  S
N509        C516   1.343       .  A
N510        N511   1.339       .  A
N510       Mn536   2.308   1_656  S
N511        C516   1.375       .  A
N512        N513   1.316       .  A
N512       Mn514   2.165   1_455  S
N513        C515   1.344       .  A
Mn514      Cl538   2.539   1_656  S
C515       C2166   1.504       .  S
C516       C2138   1.509       .  S
N517        N518   1.303       .  A
N517        N523   1.313       .  A
N517       Mn525   2.126       .  S
N518        C526   1.342       .  A
N519        N521   1.314       .  A
N519        N520   1.323       .  A
N519       Mn537   2.200       .  S
N520        C527   1.354       .  A
N521        N522   1.296       .  A
N521       Mn525   2.090       .  S
N522        C527   1.334       .  A
N523        N524   1.321       .  A
N523       Mn537   2.198       .  S
N524        C526   1.354       .  A
Mn525      Cl538   2.488       .  S
C526       C2421   1.438       .  S
C527       C2320   1.436       .  S
N528        N529   1.356       .  A
N528        N534   1.307   1_655  A
N528       Mn536   2.409   1_655  S
N529        C539   1.392       .  A
N530        N531   1.297       .  A
N530        N532   1.308       .  A
N530       Mn537   2.085       .  S
N531        C540   1.324   1_554  A
N532        N533   1.353   1_554  A
N532       Mn536   2.389       .  S
N533        C540   1.388       .  A
N534        N535   1.299       .  A
N534       Mn537   2.111       .  S
N535        C539   1.325   1_455  A
Mn536      Cl538   2.411       .  S
Mn537      Cl538   2.617       .  S
C539       C2180   1.547       .  S
C540       C2155   1.534       .  S
N541        N542   1.350       .  A
N541        N547   1.306   1_556  A
N541       Mn570   2.380       .  S
N542        C549   1.387       .  A
N543        N545   1.308       .  A
N543        N544   1.297       .  A
N543       Mn559   2.113       .  S
N544        C550   1.329       .  A
N545        N546   1.348       .  A
N545       Mn570   2.368   1_554  S
N546        C550   1.384       .  A
N547        N548   1.299       .  A
N547       Mn559   2.081       .  S
N548        C549   1.321   1_554  A
C549       C2040   1.523       .  S
C550       C2054   1.529       .  S
N551        N557   1.315       .  A
N551        N552   1.302       .  A
N551       Mn581   2.138       .  S
N552        C560   1.341       .  A
N553        N554   1.310       .  A
N553        N555   1.312       .  A
N553       Mn559   2.185       .  S
N554        C561   1.334       .  A
N555        N556   1.314       .  A
N555       Mn581   2.139       .  S
N556        C561   1.344       .  A
N557        N558   1.323       .  A
N557       Mn559   2.185       .  S
N558        C560   1.349       .  A
Mn559      Cl583   2.610       .  S
C560       C2096   1.446       .  S
C561       C2124   1.439       .  S
N562        N563   1.340   1_556  A
N562        N568   1.312       .  A
N562       Mn570   2.315       .  S
N563        C571   1.376       .  A
N564        N566   1.313       .  A
N564        N565   1.310       .  A
N564       Mn582   2.163       .  S
N565        C572   1.342       .  A
N566        N567   1.338       .  A
N566       Mn570   2.284       .  S
N567        C572   1.373       .  A
N568        N569   1.311       .  A
N568       Mn582   2.127       .  S
N569        C571   1.336   1_556  A
Mn570      Cl583   2.409   1_556  S
C571       C2026   1.496       .  S
C572       C2068   1.506       .  S
N573        N574   1.319       .  A
N573        N579   1.309       .  A
N573       Mn581   2.167   1_556  S
N574        C584   1.348       .  A
N575        N576   1.312       .  A
N575        N577   1.310       .  A
N575       Mn582   2.160   1_554  S
N576        C585   1.348       .  A
N577        N578   1.322       .  A
N577       Mn581   2.176       .  S
N578        C585   1.354       .  A
N579        N580   1.312       .  A
N579       Mn582   2.140       .  S
N580        C584   1.344       .  A
Mn581      Cl583   2.491       .  S
Mn582      Cl583   2.531   1_556  S
C584       C2082   1.458       .  S
C585       C2113   1.466       .  S
N586        N587   1.319       .  A
N586        N592   1.312       .  A
N586       Mn615   2.159       .  S
N587        C594   1.347       .  A
N588        N590   1.306       .  A
N588        N589   1.315       .  A
N588       Mn604   2.121       .  S
N589        C595   1.344       .  A
N590        N591   1.312       .  A
N590       Mn615   2.159   1_545  S
N591        C595   1.345       .  A
N592        N593   1.315       .  A
N592       Mn604   2.170   1_565  S
N593        C594   1.348       .  A
C594       C2085   1.464       .  S
C595       C2001   1.460       .  S
N596        N602   1.311       .  A
N596        N597   1.306       .  A
N596       Mn626   2.134       .  S
N597        C605   1.338       .  A
N598        N599   1.306       .  A
N598        N600   1.306       .  A
N598       Mn604   2.129       .  S
N599        C606   1.340       .  A
N600        N601   1.320       .  A
N600       Mn626   2.162       .  S
N601        C606   1.353       .  A
N602        N603   1.327       .  A
N602       Mn604   2.210       .  S
N603        C605   1.362       .  A
Mn604      Cl628   2.520       .  S
C605       C1987   1.479       .  S
C606       C2012   1.464       .  S
N607        N608   1.304       .  A
N607        N613   1.316       .  A
N607       Mn615   2.124   1_545  S
N608        C616   1.327       .  A
N609        N611   1.315       .  A
N609        N610   1.339       .  A
N609       Mn627   2.316   1_565  S
N610        C617   1.374       .  A
N611        N612   1.307       .  A
N611       Mn615   2.111       .  S
N612        C617   1.334       .  A
N613        N614   1.351       .  A
N613       Mn627   2.364       .  S
N614        C616   1.387       .  A
Mn615      Cl628   2.504   1_565  S
C616       C1945   1.520       .  S
C617       C1970   1.486       .  S
N618        N619   1.303       .  A
N618        N624   1.319       .  A
N618       Mn626   2.089       .  S
N619        C629   1.330       .  A
N620        N621   1.347       .  A
N620        N622   1.312       .  A
N620       Mn627   2.326       .  S
N621        C630   1.383       .  A
N622        N623   1.303       .  A
N622       Mn626   2.113       .  S
N623        C630   1.325       .  A
N624        N625   1.341       .  A
N624       Mn627   2.353       .  S
N625        C629   1.379       .  A
Mn626      Cl628   2.501       .  S
Mn627      Cl628   2.532       .  S
C629       C1928   1.486       .  S
C630       C1956   1.505       .  S
N631        N632   1.320       .  A
N631        N637   1.310       .  A
N631       Mn660   2.169       .  S
N632        C639   1.347       .  A
N633        N635   1.313       .  A
N633        N634   1.316       .  A
N633       Mn649   2.171       .  S
N634        C640   1.345   1_556  A
N635        N636   1.316   1_556  A
N635       Mn660   2.184       .  S
N636        C640   1.353       .  A
N637        N638   1.308       .  A
N637       Mn649   2.139       .  S
N638        C639   1.336       .  A
C639       C1984   1.454       .  S
C640       C1914   1.468       .  S
N641        N647   1.316       .  A
N641        N642   1.345   1_556  A
N641       Mn671   2.355       .  S
N642        C650   1.382   1_554  A
N643        N644   1.312       .  A
N643        N645   1.319       .  A
N643       Mn649   2.172       .  S
N644        C651   1.338       .  A
N645        N646   1.341       .  A
N645       Mn671   2.307       .  S
N646        C651   1.373       .  A
N647        N648   1.307       .  A
N647       Mn649   2.099       .  S
N648        C650   1.328       .  A
Mn649      Cl673   2.515       .  S
C650       C1830   1.500   1_556  S
C651       C1861   1.505       .  S
N652        N653   1.319       .  A
N652        N658   1.308       .  A
N652       Mn660   2.189   1_554  S
N653        C661   1.356       .  A
N654        N656   1.306       .  A
N654        N655   1.305       .  A
N654       Mn672   2.105   1_556  S
N655        C662   1.332       .  A
N656        N657   1.318       .  A
N656       Mn660   2.175       .  S
N657        C662   1.356       .  A
N658        N659   1.307       .  A
N658       Mn672   2.109       .  S
N659        C661   1.329       .  A
Mn660      Cl673   2.548       .  S
C661       C1886   1.432       .  S
C662       C1900   1.422       .  S
N663        N664   1.355       .  A
N663        N669   1.305       .  A
N663       Mn671   2.392       .  S
N664        C674   1.394       .  A
N665        N666   1.301       .  A
N665        N667   1.314       .  A
N665       Mn672   2.099       .  S
N666        C675   1.329       .  A
N667        N668   1.349       .  A
N667       Mn671   2.366   1_554  S
N668        C675   1.387       .  A
N669        N670   1.299       .  A
N669       Mn672   2.030   1_556  S
N670        C674   1.316       .  A
Mn671      Cl673   2.523       .  S
Mn672      Cl673   2.506   1_554  S
C674       C1847   1.519       .  S
C675       C1872   1.523       .  S
N676        N677   1.328       .  A
N676        N682   1.309       .  A
N676       Mn705   2.221   1_565  S
N677        C684   1.360       .  A
N678        N680   1.308       .  A
N678        N679   1.310       .  A
N678       Mn694   2.132   1_545  S
N679        C685   1.347       .  A
N680        N681   1.317       .  A
N680       Mn705   2.177       .  S
N681        C685   1.354       .  A
N682        N683   1.301       .  A
N682       Mn694   2.104       .  S
N683        C684   1.328       .  A
C684       C2099   1.467       .  S
C685       C1802   1.461       .  S
N686        N692   1.311       .  A
N686        N687   1.351       .  A
N686       Mn716   2.379       .  S
N687        C695   1.390       .  A
N688        N689   1.318       .  A
N688        N690   1.320       .  A
N688       Mn694   2.219       .  S
N689        C696   1.345       .  A
N690        N691   1.334       .  A
N690       Mn716   2.269   1_565  S
N691        C696   1.368       .  A
N692        N693   1.306       .  A
N692       Mn694   2.076   1_545  S
N693        C695   1.322       .  A
Mn694      Cl718   2.498   1_565  S
C695       C1774   1.514       .  S
C696       C1760   1.498       .  S
N697        N698   1.314       .  A
N697        N703   1.310       .  A
N697       Mn705   2.197       .  S
N698        C706   1.353       .  A
N699        N701   1.310       .  A
N699        N700   1.323   1_545  A
N699       Mn717   2.203       .  S
N700        C707   1.355       .  A
N701        N702   1.312   1_545  A
N701       Mn705   2.148       .  S
N702        C707   1.343       .  A
N703        N704   1.316       .  A
N703       Mn717   2.132       .  S
N704        C706   1.335       .  A
Mn705      Cl718   2.531       .  S
C706       C1889   1.445       .  S
C707       C1816   1.474       .  S
N708        N709   1.355       .  A
N708        N714   1.311   1_565  A
N708       Mn716   2.403   1_565  S
N709        C719   1.393       .  A
N710        N711   1.308       .  A
N710        N712   1.320       .  A
N710       Mn717   2.178       .  S
N711        C720   1.337       .  A
N712        N713   1.345       .  A
N712       Mn716   2.328       .  S
N713        C720   1.379       .  A
N714        N715   1.297       .  A
N714       Mn717   2.034       .  S
N715        C719   1.316   1_545  A
Mn716      Cl718   2.560       .  S
Mn717      Cl718   2.518       .  S
C719       C1788   1.513       .  S
C720       C1749   1.532       .  S
N721        N722   1.307       .  A
N721        N727   1.307       .  A
N721       Mn750   2.117       .  S
N722        C729   1.333       .  A
N723        N725   1.311       .  A
N723        N724   1.317       .  A
N723       Mn739   2.161       .  S
N724        C730   1.354       .  A
N725        N726   1.305       .  A
N725       Mn750   2.155   1_556  S
N726        C730   1.340       .  A
N727        N728   1.319       .  A
N727       Mn739   2.159   1_554  S
N728        C729   1.354       .  A
C729       C1805   1.444       .  S
C730       C1903   1.433       .  S
N731        N737   1.306   1_565  A
N731        N732   1.313   1_565  A
N731       Mn761   2.117       .  S
N732        C740   1.335       .  A
N733        N734   1.316   1_556  A
N733        N735   1.314       .  A
N733       Mn739   2.174   1_565  S
N734        C741   1.352       .  A
N735        N736   1.316   1_556  A
N735       Mn761   2.177       .  S
N736        C741   1.347       .  A
N737        N738   1.311       .  A
N737       Mn739   2.153       .  S
N738        C740   1.345       .  A
Mn739      Cl763   2.543       .  S
C740       C1998   1.447       .  S
C741       C2110   1.465       .  S
N742        N743   1.306       .  A
N742        N748   1.297   1_554  A
N742       Mn750   2.112       .  S
N743        C751   1.331   1_554  A
N744        N746   1.312       .  A
N744        N745   1.352       .  A
N744       Mn762   2.432   1_554  S
N745        C752   1.393       .  A
N746        N747   1.302       .  A
N746       Mn750   2.029       .  S
N747        C752   1.324       .  A
N748        N749   1.358       .  A
N748       Mn762   2.398       .  S
N749        C751   1.398       .  A
Mn750      Cl763   2.497   1_554  S
C751       C1707   1.561       .  S
C752       C1732   1.513       .  S
N753        N754   1.298       .  A
N753        N759   1.314       .  A
N753       Mn761   2.060       .  S
N754        C764   1.321   1_556  A
N755        N756   1.345       .  A
N755        N757   1.320   1_545  A
N755       Mn762   2.333       .  S
N756        C765   1.379       .  A
N757        N758   1.310       .  A
N757       Mn761   2.171       .  S
N758        C765   1.334   1_565  A
N759        N760   1.345   1_556  A
N759       Mn762   2.349   1_565  S
N760        C764   1.383       .  A
Mn761      Cl763   2.493   1_565  S
Mn762      Cl763   2.478       .  S
C764       C1690   1.486       .  S
C765       C1721   1.513       .  S
N766        N767   1.336       .  A
N766        N772   1.321       .  A
N766       Mn795   2.268   1_566  S
N767        C774   1.372       .  A
N768        N770   1.310       .  A
N768        N769   1.310       .  A
N768       Mn784   2.097       .  S
N769        C775   1.328       .  A
N770        N771   1.346       .  A
N770       Mn795   2.349   1_556  S
N771        C775   1.382       .  A
N772        N773   1.321       .  A
N772       Mn784   2.249   1_565  S
N773        C774   1.349       .  A
C774       C1648   1.520       .  S
C775       C1665   1.511       .  S
N776        N782   1.311       .  A
N776        N777   1.315       .  A
N776       Mn806   2.172   1_556  S
N777        C785   1.356       .  A
N778        N779   1.309       .  A
N778        N780   1.304   1_556  A
N778       Mn784   2.093   1_565  S
N779        C786   1.331       .  A
N780        N781   1.320       .  A
N780       Mn806   2.194   1_565  S
N781        C786   1.355   1_554  A
N782        N783   1.312       .  A
N782       Mn784   2.171       .  S
N783        C785   1.354       .  A
Mn784      Cl808   2.501   1_556  S
C785       C2015   1.460       .  S
C786       C2127   1.449       .  S
N787        N788   1.346       .  A
N787        N793   1.323       .  A
N787       Mn795   2.396       .  S
N788        C796   1.382       .  A
N789        N791   1.294       .  A
N789        N790   1.306       .  A
N789       Mn807   2.133       .  S
N790        C797   1.326   1_545  A
N791        N792   1.355   1_545  A
N791       Mn795   2.419       .  S
N792        C797   1.400       .  A
N793        N794   1.309       .  A
N793       Mn807   2.119       .  S
N794        C796   1.336       .  A
Mn795      Cl808   2.448       .  S
C796       C1637   1.524       .  S
C797       C1679   1.547       .  S
N798        N799   1.306   1_545  A
N798        N804   1.320       .  A
N798       Mn806   2.128       .  S
N799        C809   1.339       .  A
N800        N801   1.320       .  A
N800        N802   1.304       .  A
N800       Mn807   2.147       .  S
N801        C810   1.346       .  A
N802        N803   1.310       .  A
N802       Mn806   2.141       .  S
N803        C810   1.350       .  A
N804        N805   1.328   1_545  A
N804       Mn807   2.297       .  S
N805        C809   1.357       .  A
Mn806      Cl808   2.498       .  S
Mn807      Cl808   2.561       .  S
C809       C1819   1.487       .  S
C810       C1917   1.450       .  S
N811        N812   1.308       .  A
N811        N817   1.312       .  A
N811       Mn840   2.145       .  S
N812        C819   1.350       .  A
N813        N815   1.303   1_455  A
N813        N814   1.324       .  A
N813       Mn829   2.204       .  S
N814        C820   1.362   1_455  A
N815        N816   1.301       .  A
N815       Mn840   2.075       .  S
N816        C820   1.326       .  A
N817        N818   1.320       .  A
N817       Mn829   2.192   1_655  S
N818        C819   1.356       .  A
C819       C1578   1.471       .  S
C820       C1609   1.442       .  S
N821        N827   1.322       .  A
N821        N822   1.324       .  A
N821       Mn851   2.283       .  S
N822        C830   1.354       .  A
N823        N824   1.313       .  A
N823        N825   1.307       .  A
N823       Mn829   2.163       .  S
N824        C831   1.349       .  A
N825        N826   1.318       .  A
N825       Mn851   2.143       .  S
N826        C831   1.342       .  A
N827        N828   1.313       .  A
N827       Mn829   2.150       .  S
N828        C830   1.346       .  A
Mn829      Cl853   2.521       .  S
C830       C1595   1.488       .  S
C831       C1620   1.447       .  S
N832        N833   1.320       .  A
N832        N838   1.319   1_655  A
N832       Mn840   2.244       .  S
N833        C841   1.350       .  A
N834        N836   1.307       .  A
N834        N835   1.341       .  A
N834       Mn852   2.317   1_655  S
N835        C842   1.379       .  A
N836        N837   1.306       .  A
N836       Mn840   2.091       .  S
N837        C842   1.329       .  A
N838        N839   1.336       .  A
N838       Mn852   2.264       .  S
N839        C841   1.372   1_455  A
Mn840      Cl853   2.480   1_655  S
C841       C1536   1.529       .  S
C842       C1567   1.493       .  S
N843        N844   1.313       .  A
N843        N849   1.322       .  A
N843       Mn851   2.136       .  S
N844        C854   1.343       .  A
N845        N846   1.354       .  A
N845        N847   1.297       .  A
N845       Mn852   2.391       .  S
N846        C855   1.395       .  A
N847        N848   1.303       .  A
N847       Mn851   2.123       .  S
N848        C855   1.324       .  A
N849        N850   1.342       .  A
N849       Mn852   2.370       .  S
N850        C854   1.377       .  A
Mn851      Cl853   2.533       .  S
Mn852      Cl853   2.480       .  S
C854       C1550   1.530       .  S
C855       C1525   1.539       .  S
N856        N857   1.310       .  A
N856        N862   1.312       .  A
N856       Mn885   2.135       .  S
N857        C864   1.337       .  A
N858        N860   1.310       .  A
N858        N859   1.313       .  A
N858       Mn874   2.141       .  S
N859        C865   1.345       .  A
N860        N861   1.305       .  A
N860       Mn885   2.134   1_545  S
N861        C865   1.339       .  A
N862        N863   1.315       .  A
N862       Mn874   2.183   1_565  S
N863        C864   1.352       .  A
C864       C1581   1.454       .  S
C865       C1511   1.441       .  S
N866        N872   1.308       .  A
N866        N867   1.307       .  A
N866       Mn896   2.105       .  S
N867        C875   1.330       .  A
N868        N869   1.320   1_545  A
N868        N870   1.315       .  A
N868       Mn874   2.163       .  S
N869        C876   1.349       .  A
N870        N871   1.313       .  A
N870       Mn896   2.179       .  S
N871        C876   1.347   1_545  A
N872        N873   1.322       .  A
N872       Mn874   2.197       .  S
N873        C875   1.354       .  A
Mn874      Cl898   2.531       .  S
C875       C1483   1.454       .  S
C876       C1497   1.470       .  S
N877        N878   1.312       .  A
N877        N883   1.315       .  A
N877       Mn885   2.117   1_545  S
N878        C886   1.331       .  A
N879        N881   1.313       .  A
N879        N880   1.341       .  A
N879       Mn897   2.311   1_565  S
N880        C887   1.377       .  A
N881        N882   1.300       .  A
N881       Mn885   2.081       .  S
N882        C887   1.325       .  A
N883        N884   1.351       .  A
N883       Mn897   2.392       .  S
N884        C886   1.390       .  A
Mn885      Cl898   2.494   1_565  S
C886       C1452   1.531       .  S
C887       C1466   1.478       .  S
N888        N889   1.300       .  A
N888        N894   1.309       .  A
N888       Mn896   2.073       .  S
N889        C899   1.324       .  A
N890        N891   1.347       .  A
N890        N892   1.318       .  A
N890       Mn897   2.355       .  S
N891        C900   1.381       .  A
N892        N893   1.309       .  A
N892       Mn896   2.147       .  S
N893        C900   1.335       .  A
N894        N895   1.358   1_545  A
N894       Mn897   2.408       .  S
N895        C899   1.397   1_565  A
Mn896      Cl898   2.531       .  S
Mn897      Cl898   2.521       .  S
C899       C1438   1.545   1_545  S
C900       C1424   1.522       .  S
N901        N902   1.310       .  A
N901        N907   1.315       .  A
N901       Mn930   2.135       .  S
N902        C909   1.338       .  A
N903        N905   1.306       .  A
N903        N904   1.319       .  A
N903       Mn919   2.159       .  S
N904        C910   1.344       .  A
N905        N906   1.307       .  A
N905       Mn930   2.136       .  S
N906        C910   1.348       .  A
N907        N908   1.333       .  A
N907       Mn919   2.268       .  S
N908        C909   1.363       .  A
C909       C1592   1.482       .  S
C910       C1413   1.440       .  S
N911        N917   1.326       .  A
N911        N912   1.345   1_565  A
N911       Mn941   2.335   1_565  S
N912        C920   1.375       .  A
N913        N914   1.296       .  A
N913        N915   1.312       .  A
N913       Mn919   2.052       .  S
N914        C921   1.318       .  A
N915        N916   1.353       .  A
N915       Mn941   2.370   1_565  S
N916        C921   1.388       .  A
N917        N918   1.312       .  A
N917       Mn919   2.179       .  S
N918        C920   1.337   1_565  A
Mn919      Cl943   2.481       .  S
C920       C1326   1.520       .  S
C921       C1357   1.509       .  S
N922        N923   1.317       .  A
N922        N928   1.307       .  A
N922       Mn930   2.143   1_545  S
N923        C931   1.357       .  A
N924        N926   1.301   1_545  A
N924        N925   1.295       .  A
N924       Mn942   2.066       .  S
N925        C932   1.330   1_545  A
N926        N927   1.317       .  A
N926       Mn930   2.144       .  S
N927        C932   1.356       .  A
N928        N929   1.304       .  A
N928       Mn942   2.153       .  S
N929        C931   1.344       .  A
Mn930      Cl943   2.599       .  S
C931       C1385   1.434       .  S
C932       C1396   1.417   1_565  S
N933        N934   1.337       .  A
N933        N939   1.314       .  A
N933       Mn941   2.288       .  S
N934        C944   1.373       .  A
N935        N936   1.306       .  A
N935        N937   1.306       .  A
N935       Mn942   2.057       .  S
N936        C945   1.323       .  A
N937        N938   1.351       .  A
N937       Mn941   2.381       .  S
N938        C945   1.391       .  A
N939        N940   1.319       .  A
N939       Mn942   2.193       .  S
N940        C944   1.345       .  A
Mn941      Cl943   2.563   1_545  S
Mn942      Cl943   2.419   1_545  S
C944       C1368   1.507       .  S
C945       C1340   1.516       .  S
N946        N947   1.322       .  A
N946        N952   1.307       .  A
N946       Mn975   2.182       .  S
N947        C954   1.358       .  A
N948        N950   1.307       .  A
N948        N949   1.302       .  A
N948       Mn964   2.116       .  S
N949        C955   1.332   1_655  A
N950        N951   1.328   1_655  A
N950       Mn975   2.197       .  S
N951        C955   1.361       .  A
N952        N953   1.309       .  A
N952       Mn964   2.137       .  S
N953        C954   1.341       .  A
C954       C1480   1.466       .  S
C955       C1298   1.461       .  S
N956        N962   1.314       .  A
N956        N957   1.347   1_655  A
N956       Mn986   2.363       .  S
N957        C965   1.384       .  A
N958        N959   1.298       .  A
N958        N960   1.311       .  A
N958       Mn964   2.063       .  S
N959        C966   1.319       .  A
N960        N961   1.353       .  A
N960       Mn986   2.385       .  S
N961        C966   1.391       .  A
N962        N963   1.303       .  A
N962       Mn964   2.078       .  S
N963        C965   1.324   1_655  A
Mn964      Cl988   2.506       .  S
C965       C1284   1.502       .  S
C966       C1256   1.514       .  S
N967        N968   1.308       .  A
N967        N973   1.303       .  A
N967       Mn975   2.164   1_455  S
N968        C976   1.355       .  A
N969        N971   1.313   1_455  A
N969        N970   1.301       .  A
N969       Mn987   2.126       .  S
N970        C977   1.331   1_455  A
N971        N972   1.328       .  A
N971       Mn975   2.194       .  S
N972        C977   1.354       .  A
N973        N974   1.310       .  A
N973       Mn987   2.104       .  S
N974        C976   1.345       .  A
Mn975      Cl988   2.527       .  S
C976       C1382   1.448       .  S
C977       C1315   1.467       .  S
N978        N979   1.349   1_455  A
N978        N984   1.313       .  A
N978       Mn986   2.360   1_455  S
N979        C989   1.386   1_655  A
N980        N981   1.300       .  A
N980        N982   1.313       .  A
N980       Mn987   2.053       .  S
N981        C990   1.320       .  A
N982        N983   1.348       .  A
N982       Mn986   2.370   1_455  S
N983        C990   1.386       .  A
N984        N985   1.304       .  A
N984       Mn987   2.114       .  S
N985        C989   1.326       .  A
Mn986      Cl988   2.506       .  S
Mn987      Cl988   2.514   1_455  S
C989       C1242   1.515   1_455  S
C990       C1273   1.495       .  S
N991        N992   1.320   1_455  A
N991        N997   1.311       .  A
N991      Mn1020   2.204   1_465  S
N992        C999   1.359       .  A
N993        N995   1.302       .  A
N993        N994   1.315       .  A
N993      Mn1009   2.130   1_545  S
N994       C1000   1.352       .  A
N995        N996   1.305       .  A
N995      Mn1020   2.117   1_455  S
N996       C1000   1.345       .  A
N997        N998   1.310       .  A
N997      Mn1009   2.118       .  S
N998        C999   1.332   1_455  A
C999       C1606   1.453       .  S
C1000      C1399   1.455       .  S
N1001      N1007   1.311       .  A
N1001      N1002   1.352       .  A
N1001     Mn1031   2.406       .  S
N1002      C1010   1.393       .  A
N1003      N1004   1.304       .  A
N1003      N1005   1.311       .  A
N1003     Mn1009   2.137       .  S
N1004      C1011   1.334       .  A
N1005      N1006   1.342   1_455  A
N1005     Mn1031   2.307   1_565  S
N1006      C1011   1.378   1_655  A
N1007      N1008   1.299       .  A
N1007     Mn1009   2.027   1_545  S
N1008      C1010   1.316       .  A
Mn1009    Cl1033   2.534   1_565  S
C1010      C1186   1.504       .  S
C1011      C1200   1.518   1_455  S
N1012      N1013   1.322   1_655  A
N1012      N1018   1.313       .  A
N1012     Mn1020   2.196       .  S
N1013      C1021   1.348       .  A
N1014      N1016   1.307       .  A
N1014      N1015   1.315       .  A
N1014     Mn1032   2.172       .  S
N1015      C1022   1.348   1_545  A
N1016      N1017   1.311   1_545  A
N1016     Mn1020   2.124       .  S
N1017      C1022   1.344       .  A
N1018      N1019   1.312       .  A
N1018     Mn1032   2.144       .  S
N1019      C1021   1.337   1_655  A
Mn1020    Cl1033   2.506   1_655  S
C1021      C1301   1.456       .  S
C1022      C1494   1.455       .  S
N1023      N1024   1.351   1_545  A
N1023      N1029   1.315       .  A
N1023     Mn1031   2.395   1_655  S
N1024      C1034   1.387   1_565  A
N1025      N1026   1.310       .  A
N1025      N1027   1.317       .  A
N1025     Mn1032   2.132       .  S
N1026      C1035   1.332       .  A
N1027      N1028   1.345   1_655  A
N1027     Mn1031   2.350   1_655  S
N1028      C1035   1.380   1_455  A
N1029      N1030   1.307       .  A
N1029     Mn1032   2.083       .  S
N1030      C1034   1.325       .  A
Mn1031    Cl1033   2.473       .  S
Mn1032    Cl1033   2.552   1_655  S
C1034      C1214   1.518   1_545  S
C1035      C1228   1.510   1_655  S
N1036      N1037   1.306       .  A
N1036      N1042   1.306       .  A
N1036     Mn1065   2.107       .  S
N1037      C1044   1.332       .  A
N1038      N1040   1.307   1_655  A
N1038      N1039   1.327       .  A
N1038     Mn1054   2.219   1_655  S
N1039      C1045   1.358       .  A
N1040      N1041   1.301       .  A
N1040     Mn1065   2.088       .  S
N1041      C1045   1.328   1_455  A
N1042      N1043   1.321       .  A
N1042     Mn1054   2.195       .  S
N1043      C1044   1.362       .  A
C1044      C1410   1.442       .  S
C1045      C1312   1.449       .  S
N1046      N1052   1.308       .  A
N1046      N1047   1.322       .  A
N1046     Mn1076   2.131   1_545  S
N1047      C1055   1.348       .  A
N1048      N1049   1.320       .  A
N1048      N1050   1.314   1_455  A
N1048     Mn1054   2.205   1_565  S
N1049      C1056   1.357       .  A
N1050      N1051   1.312       .  A
N1050     Mn1076   2.142       .  S
N1051      C1056   1.335   1_655  A
N1052      N1053   1.303       .  A
N1052     Mn1054   2.150   1_655  S
N1053      C1055   1.344       .  A
Mn1054    Cl1078   2.542       .  S
C1055      C1508   1.471       .  S
C1056      C1623   1.450       .  S
N1057      N1058   1.301       .  A
N1057      N1063   1.311       .  A
N1057     Mn1065   2.083       .  S
N1058      C1066   1.321   1_455  A
N1059      N1061   1.315       .  A
N1059      N1060   1.349       .  A
N1059     Mn1077   2.377       .  S
N1060      C1067   1.387       .  A
N1061      N1062   1.299       .  A
N1061     Mn1065   2.061       .  S
N1062      C1067   1.319       .  A
N1063      N1064   1.348   1_455  A
N1063     Mn1077   2.349       .  S
N1064      C1066   1.385       .  A
Mn1065    Cl1078   2.507       .  S
C1066      C1144   1.502       .  S
C1067      C1158   1.497       .  S
N1068      N1069   1.303       .  A
N1068      N1074   1.317   1_655  A
N1068     Mn1076   2.109       .  S
N1069      C1079   1.328   1_655  A
N1070      N1071   1.344       .  A
N1070      N1072   1.315       .  A
N1070     Mn1077   2.337   1_655  S
N1071      C1080   1.380       .  A
N1072      N1073   1.303       .  A
N1072     Mn1076   2.095   1_545  S
N1073      C1080   1.326       .  A
N1074      N1075   1.348       .  A
N1074     Mn1077   2.360   1_565  S
N1075      C1079   1.385       .  A
Mn1076    Cl1078   2.514   1_665  S
Mn1077    Cl1078   2.535       .  S
C1079      C1172   1.513       .  S
C1080      C1133   1.493       .  S
C1081      C1082   1.388       .  D
C1081      C2239   1.522       .  S
C1081      C2292   1.523       .  S
C1082      C1231   1.538       .  S
C1082      C1287   1.531       .  S
C1083      C1084   1.390       .  D
C1083      C1676   1.544       .  S
C1083      C1791   1.553       .  S
C1084      C1217   1.552       .  S
C1084      C1441   1.545       .  S
C1085      C1086   1.383       .  D
C1085      C2183   1.537       .  S
C1085      C2281   1.531       .  S
C1086      C1203   1.513       .  S
C1086      C1539   1.522       .  S
C1087      C1088   1.389       .  D
C1087      C1189   1.543       .  S
C1087      C1371   1.525       .  S
C1088      C1735   1.538       .  S
C1088      C1777   1.546       .  S
C1089      C1090   1.384       .  D
C1089      C2687   1.544       .  S
C1089      C3065   1.528       .  S
C1090      C1270   1.530       .  S
C1090      C1343   1.541       .  S
C1091      C1092   1.391       .  D
C1091      C2799   1.538       .  S
C1091      C3079   1.539       .  S
C1092      C1259   1.539       .  S
C1092      C1427   1.532       .  S
C1093      C1094   1.390       .  D
C1093      C2673   1.548       .  S
C1093      C2869   1.546       .  S
C1094      C1354   1.545       .  S
C1094      C1522   1.532       .  S
C1095      C1096   1.391       .  D
C1095      C1718   1.540       .  S
C1095      C1942   1.532       .  S
C1096      C1161   1.538       .  S
C1096      C1329   1.534       .  S
C1097      C1098   1.400       .  D
C1097      C2225   1.542       .  S
C1097      C2379   1.538       .  S
C1098      C1704   1.557       .  S
C1098      C1844   1.571       .  S
C1099      C1100   1.387   1_556  D
C1099      C2152   1.540       .  S
C1099      C2365   1.528       .  S
C1100      C1693   1.526       .  S
C1100      C2029   1.524       .  S
C1101      C1102   1.391       .  D
C1101      C2883   1.525       .  S
C1101      C2981   1.549       .  S
C1102      C1763   1.515       .  S
C1102      C2057   1.518       .  S
C1103      C1104   1.376       .  D
C1103      C2964   1.534       .  S
C1103      C3051   1.534       .  S
C1104      C1746   1.525       .  S
C1104      C1875   1.522       .  S
C1105      C1106   1.382       .  D
C1105      C1858   1.522       .  S
C1105      C1959   1.531       .  S
C1106      C2743   1.531       .  S
C1106      C3037   1.525       .  S
C1107      C1108   1.381       .  D
C1107      C2211   1.532       .  S
C1107      C2446   1.524       .  S
C1108      C1147   1.539       .  S
C1108      C1245   1.539       .  S
C1109      C1110   1.380       .  D
C1109      C2194   1.519       .  S
C1109      C2533   1.521       .  S
C1110      C1634   1.525       .  S
C1110      C1833   1.526       .  S
C1111      C1112   1.389       .  D
C1111      C2659   1.533       .  S
C1111      C2953   1.552       .  S
C1112      C2264   1.536       .  S
C1112      C2351   1.535       .  S
C1113      C1114   1.397       .  D
C1113      C2813   1.556       .  S
C1113      C2939   1.528       .  S
C1114      C2253   1.555       .  S
C1114      C2561   1.564       .  S
C1115      C1116   1.386       .  D
C1115      C2642   1.520       .  S
C1115      C2729   1.551       .  S
C1116      C2334   1.525       .  S
C1116      C2435   1.558       .  S
C1117      C1118   1.378       .  D
C1117      C1175   1.520       .  S
C1117      C1553   1.527       .  S
C1118      C2169   1.523       .  S
C1118      C2460   1.511       .  S
C1119      C1120   1.388       .  D
C1119      C1662   1.550       .  S
C1119      C1931   1.522       .  S
C1120      C1130   1.523       .  S
C1120      C1455   1.557       .  S
C1121      C1122   1.398       .  D
C1121      C2141   1.523       .  S
C1121      C2547   1.557       .  S
C1122      C1651   1.529       .  S
C1122      C2043   1.511       .  S
C1123      C1124   1.389       .  D
C1123      C2715   1.559       .  S
C1123      C2785   1.542       .  S
C1124      C2477   1.534       .  S
C1124      C2572   1.530       .  S
C1125      C1126   1.377       .  D
C1125      C2771   1.560       .  S
C1125      C2838   1.573       .  S
C1126      C1469   1.516       .  S
C1126      C1564   1.525       .  S
C1127      C1128   1.381       .  D
C1127      C2701   1.541       .  S
C1127      C2855   1.530       .  S
C1128      C1973   1.520       .  S
C1128      C2071   1.513       .  S
C1129      C1130   1.404       .  A
C1129      C1134   1.405       .  A
C1129      H1136   1.084       .  S
C1130      C1131   1.423       .  A
C1131      C1132   1.426       .  A
C1131      N1138   1.436       .  S
C1132      C1133   1.409       .  A
C1132      H1137   1.083       .  S
C1133      C1134   1.420       .  A
C1134      N1135   1.438   1_545  S
N1135      H1139   1.046       .  S
N1135      H1140   1.045       .  S
N1138      H1141   1.037       .  S
N1138      H1142   1.045       .  S
C1143      C1144   1.413       .  A
C1143      C1148   1.429       .  A
C1143      H1150   1.083       .  S
C1144      C1145   1.423   1_655  A
C1145      C1146   1.410       .  A
C1145      N1152   1.439       .  S
C1146      C1147   1.410   1_455  A
C1146      H1151   1.083       .  S
C1147      C1148   1.420       .  A
C1148      N1149   1.427       .  S
N1149      H1153   1.045       .  S
N1149      H1154   1.045       .  S
N1152      H1155   1.045       .  S
N1152      H1156   1.046       .  S
C1157      C1158   1.410   1_565  A
C1157      C1162   1.429       .  A
C1157      H1164   1.083       .  S
C1158      C1159   1.423       .  A
C1159      C1160   1.409       .  A
C1159      N1166   1.438       .  S
C1160      C1161   1.408       .  A
C1160      H1165   1.084       .  S
C1161      C1162   1.424   1_545  A
C1162      N1163   1.434       .  S
N1163      H1167   1.044       .  S
N1163      H1168   1.042       .  S
N1166      H1169   1.045       .  S
N1166      H1170   1.046       .  S
C1171      C1172   1.417   1_655  A
C1171      C1176   1.410       .  A
C1171      H1178   1.084       .  S
C1172      C1173   1.421       .  A
C1173      C1174   1.425       .  A
C1173      N1180   1.435       .  S
C1174      C1175   1.416       .  A
C1174      H1179   1.082       .  S
C1175      C1176   1.406   1_455  A
C1176      N1177   1.439       .  S
N1177      H1181   1.045       .  S
N1177      H1182   1.042       .  S
N1180      H1183   1.043       .  S
N1180      H1184   1.045       .  S
C1185      C1186   1.414       .  A
C1185      C1190   1.427       .  A
C1185      H1192   1.084       .  S
C1186      C1187   1.419       .  A
C1187      C1188   1.419       .  A
C1187      N1194   1.432   1_545  S
C1188      C1189   1.410       .  A
C1188      H1193   1.082   1_545  S
C1189      C1190   1.418       .  A
C1190      N1191   1.430       .  S
N1191      H1195   1.046       .  S
N1191      H1196   1.045       .  S
N1194      H1197   1.046       .  S
N1194      H1198   1.046       .  S
C1199      C1200   1.418   1_455  A
C1199      C1204   1.400       .  A
C1199      H1206   1.084       .  S
C1200      C1201   1.426       .  A
C1201      C1202   1.423       .  A
C1201      N1208   1.435       .  S
C1202      C1203   1.413       .  A
C1202      H1207   1.083       .  S
C1203      C1204   1.403   1_655  A
C1204      N1205   1.436       .  S
N1205      H1209   1.043       .  S
N1205      H1210   1.045       .  S
N1208      H1211   1.039       .  S
N1208      H1212   1.045       .  S
C1213      C1214   1.418       .  A
C1213      C1218   1.438       .  A
C1213      H1220   1.083       .  S
C1214      C1215   1.423   1_565  A
C1215      C1216   1.414       .  A
C1215      N1222   1.438       .  S
C1216      C1217   1.412   1_545  A
C1216      H1221   1.080       .  S
C1217      C1218   1.422       .  A
C1218      N1219   1.435       .  S
N1219      H1223   1.046       .  S
N1219      H1224   1.045       .  S
N1222      H1225   1.045       .  S
N1222      H1226   1.046       .  S
C1227      C1228   1.411       .  A
C1227      C1232   1.429       .  A
C1227      H1234   1.083       .  S
C1228      C1229   1.417   1_455  A
C1229      C1230   1.415       .  A
C1229      N1236   1.438       .  S
C1230      C1231   1.407   1_655  A
C1230      H1235   1.083       .  S
C1231      C1232   1.422       .  A
C1232      N1233   1.430       .  S
N1233      H1237   1.045       .  S
N1233      H1238   1.045       .  S
N1236      H1239   1.046       .  S
N1236      H1240   1.046       .  S
C1241      C1242   1.411       .  A
C1241      C1246   1.433       .  A
C1241      H1248   1.083       .  S
C1242      C1243   1.426   1_655  A
C1243      C1244   1.407       .  A
C1243      N1250   1.435       .  S
C1244      C1245   1.405   1_455  A
C1244      H1249   1.083       .  S
C1245      C1246   1.428       .  A
C1246      N1247   1.428       .  S
N1247      H1251   1.045       .  S
N1247      H1252   1.045       .  S
N1250      H1253   1.045       .  S
N1250      H1254   1.042       .  S
C1255      C1256   1.413       .  A
C1255      C1260   1.437       .  A
C1255      H1262   1.083       .  S
C1256      C1257   1.422       .  A
C1257      C1258   1.409       .  A
C1257      N1264   1.434       .  S
C1258      C1259   1.401       .  A
C1258      H1263   1.082       .  S
C1259      C1260   1.425       .  A
C1260      N1261   1.434       .  S
N1261      H1265   1.045       .  S
N1261      H1266   1.044       .  S
N1264      H1267   1.046       .  S
N1264      H1268   1.046       .  S
C1269      C1270   1.407       .  A
C1269      C1274   1.409       .  A
C1269      H1276   1.082       .  S
C1270      C1271   1.417       .  A
C1271      C1272   1.428       .  A
C1271      N1278   1.436       .  S
C1272      C1273   1.413       .  A
C1272      H1277   1.083       .  S
C1273      C1274   1.422       .  A
C1274      N1275   1.438       .  S
N1275      H1279   1.046       .  S
N1275      H1280   1.045       .  S
N1278      H1281   1.046       .  S
N1278      H1282   1.045       .  S
C1283      C1284   1.411   1_655  A
C1283      C1288   1.413       .  A
C1283      H1290   1.084       .  S
C1284      C1285   1.422       .  A
C1285      C1286   1.424       .  A
C1285      N1292   1.437       .  S
C1286      C1287   1.414       .  A
C1286      H1291   1.080       .  S
C1287      C1288   1.413   1_455  A
C1288      N1289   1.438       .  S
N1289      H1293   1.045       .  S
N1289      H1294   1.045       .  S
N1292      H1295   1.044       .  S
N1292      H1296   1.046       .  S
C1297      C1298   1.403       .  A
C1297      C1302   1.402       .  A
C1297      H1304   1.083       .  S
C1298      C1299   1.421       .  A
C1299      C1300   1.385       .  A
C1299      N1306   1.432   1_455  S
C1300      C1301   1.387       .  A
C1300      H1305   1.085   1_455  S
C1301      C1302   1.397       .  A
C1302      N1303   1.432       .  S
N1303      H1307   1.046       .  S
N1303      H1308   1.046       .  S
N1306      H1309   1.046       .  S
N1306      H1310   1.041       .  S
C1311      C1312   1.404       .  A
C1311      C1316   1.401       .  A
C1311      H1318   1.074       .  S
C1312      C1313   1.418       .  A
C1313      C1314   1.386       .  A
C1313      N1320   1.440   1_655  S
C1314      C1315   1.393       .  A
C1314      H1319   1.080       .  S
C1315      C1316   1.388       .  A
C1316      N1317   1.431       .  S
N1317      H1321   1.044       .  S
N1317      H1322   1.045       .  S
N1320      H1323   1.041       .  S
N1320      H1324   1.046       .  S
C1325      C1326   1.415       .  A
C1325      C1330   1.437       .  A
C1325      H1332   1.083       .  S
C1326      C1327   1.423   1_545  A
C1327      C1328   1.403       .  A
C1327      N1334   1.437       .  S
C1328      C1329   1.402   1_565  A
C1328      H1333   1.079       .  S
C1329      C1330   1.422       .  A
C1330      N1331   1.436       .  S
N1331      H1335   1.045       .  S
N1331      H1336   1.044       .  S
N1334      H1337   1.044       .  S
N1334      H1338   1.045       .  S
C1339      C1340   1.417       .  A
C1339      C1344   1.423       .  A
C1339      H1346   1.084       .  S
C1340      C1341   1.425       .  A
C1341      C1342   1.425       .  A
C1341      N1348   1.437       .  S
C1342      C1343   1.415       .  A
C1342      H1347   1.083       .  S
C1343      C1344   1.411       .  A
C1344      N1345   1.432       .  S
N1345      H1349   1.045       .  S
N1345      H1350   1.044       .  S
N1348      H1351   1.044       .  S
N1348      H1352   1.046       .  S
C1353      C1354   1.401       .  A
C1353      C1358   1.399       .  A
C1353      H1360   1.078       .  S
C1354      C1355   1.425       .  A
C1355      C1356   1.439       .  A
C1355      N1362   1.433       .  S
C1356      C1357   1.415       .  A
C1356      H1361   1.083       .  S
C1357      C1358   1.424       .  A
C1358      N1359   1.437       .  S
N1359      H1363   1.042       .  S
N1359      H1364   1.045       .  S
N1362      H1365   1.045       .  S
N1362      H1366   1.045       .  S
C1367      C1368   1.408   1_565  A
C1367      C1372   1.421       .  A
C1367      H1374   1.084       .  S
C1368      C1369   1.413       .  A
C1369      C1370   1.417       .  A
C1369      N1376   1.432       .  S
C1370      C1371   1.408       .  A
C1370      H1375   1.082       .  S
C1371      C1372   1.416   1_545  A
C1372      N1373   1.432       .  S
N1373      H1377   1.045       .  S
N1373      H1378   1.045       .  S
N1376      H1379   1.046       .  S
N1376      H1380   1.046       .  S
C1381      C1382   1.408       .  A
C1381      C1386   1.394       .  A
C1381      H1388   1.084       .  S
C1382      C1383   1.400       .  A
C1383      C1384   1.382       .  A
C1383      N1390   1.437       .  S
C1384      C1385   1.408       .  A
C1384      H1389   1.085       .  S
C1385      C1386   1.402       .  A
C1386      N1387   1.432       .  S
N1387      H1391   1.045       .  S
N1387      H1392   1.045       .  S
N1390      H1393   1.046       .  S
N1390      H1394   1.045       .  S
C1395      C1396   1.399       .  A
C1395      C1400   1.384       .  A
C1395      H1402   1.086       .  S
C1396      C1397   1.417       .  A
C1397      C1398   1.395       .  A
C1397      N1404   1.434   1_545  S
C1398      C1399   1.396       .  A
C1398      H1403   1.085       .  S
C1399      C1400   1.404       .  A
C1400      N1401   1.428       .  S
N1401      H1405   1.043       .  S
N1401      H1406   1.046       .  S
N1404      H1407   1.044       .  S
N1404      H1408   1.041       .  S
C1409      C1410   1.395   1_565  A
C1409      C1414   1.392       .  A
C1409      H1416   1.072       .  S
C1410      C1411   1.411       .  A
C1411      C1412   1.397       .  A
C1411      N1418   1.439       .  S
C1412      C1413   1.402   1_545  A
C1412      H1417   1.078       .  S
C1413      C1414   1.391       .  A
C1414      N1415   1.430       .  S
N1415      H1419   1.042       .  S
N1415      H1420   1.045       .  S
N1418      H1421   1.043       .  S
N1418      H1422   1.044       .  S
C1423      C1424   1.414       .  A
C1423      C1428   1.434       .  A
C1423      H1430   1.083       .  S
C1424      C1425   1.426       .  A
C1425      C1426   1.404       .  A
C1425      N1432   1.435       .  S
C1426      C1427   1.398       .  A
C1426      H1431   1.079       .  S
C1427      C1428   1.422       .  A
C1428      N1429   1.430       .  S
N1429      H1433   1.046       .  S
N1429      H1434   1.045       .  S
N1432      H1435   1.046       .  S
N1432      H1436   1.042       .  S
C1437      C1438   1.425   1_545  A
C1437      C1442   1.416       .  A
C1437      H1444   1.083       .  S
C1438      C1439   1.426       .  A
C1439      C1440   1.439       .  A
C1439      N1446   1.435       .  S
C1440      C1441   1.426       .  A
C1440      H1445   1.083       .  S
C1441      C1442   1.413   1_565  A
C1442      N1443   1.440       .  S
N1443      H1447   1.045       .  S
N1443      H1448   1.042       .  S
N1446      H1449   1.042       .  S
N1446      H1450   1.046       .  S
C1451      C1452   1.412       .  A
C1451      C1456   1.434       .  A
C1451      H1458   1.083       .  S
C1452      C1453   1.428       .  A
C1453      C1454   1.419       .  A
C1453      N1460   1.433   1_545  S
C1454      C1455   1.410       .  A
C1454      H1459   1.083       .  S
C1455      C1456   1.428       .  A
C1456      N1457   1.431       .  S
N1457      H1461   1.045       .  S
N1457      H1462   1.045       .  S
N1460      H1463   1.044       .  S
N1460      H1464   1.045       .  S
C1465      C1466   1.407       .  A
C1465      C1470   1.410       .  A
C1465      H1472   1.085       .  S
C1466      C1467   1.418       .  A
C1467      C1468   1.415       .  A
C1467      N1474   1.438       .  S
C1468      C1469   1.409       .  A
C1468      H1473   1.081       .  S
C1469      C1470   1.413       .  A
C1470      N1471   1.436       .  S
N1471      H1475   1.046       .  S
N1471      H1476   1.044       .  S
N1474      H1477   1.045       .  S
N1474      H1478   1.046       .  S
C1479      C1480   1.399       .  A
C1479      C1484   1.398       .  A
C1479      H1486   1.082       .  S
C1480      C1481   1.393       .  A
C1481      C1482   1.393       .  A
C1481      N1488   1.421       .  S
C1482      C1483   1.396       .  A
C1482      H1487   1.075       .  S
C1483      C1484   1.414       .  A
C1484      N1485   1.436       .  S
N1485      H1489   1.046       .  S
N1485      H1490   1.041       .  S
N1488      H1491   1.043       .  S
N1488      H1492   1.044       .  S
C1493      C1494   1.410       .  A
C1493      C1498   1.396       .  A
C1493      H1500   1.083       .  S
C1494      C1495   1.413       .  A
C1495      C1496   1.389       .  A
C1495      N1502   1.433   1_565  S
C1496      C1497   1.394       .  A
C1496      H1501   1.072       .  S
C1497      C1498   1.397       .  A
C1498      N1499   1.431       .  S
N1499      H1503   1.046       .  S
N1499      H1504   1.045       .  S
N1502      H1505   1.041       .  S
N1502      H1506   1.045       .  S
C1507      C1508   1.399       .  A
C1507      C1512   1.393       .  A
C1507      H1514   1.076       .  S
C1508      C1509   1.398       .  A
C1509      C1510   1.386       .  A
C1509      N1516   1.419       .  S
C1510      C1511   1.410       .  A
C1510      H1515   1.084       .  S
C1511      C1512   1.413       .  A
C1512      N1513   1.438       .  S
N1513      H1517   1.040       .  S
N1513      H1518   1.046       .  S
N1516      H1519   1.038       .  S
N1516      H1520   1.043       .  S
C1521      C1522   1.390       .  A
C1521      C1526   1.401       .  A
C1521      H1528   1.084       .  S
C1522      C1523   1.431       .  A
C1523      C1524   1.438       .  A
C1523      N1530   1.435       .  S
C1524      C1525   1.411       .  A
C1524      H1529   1.082       .  S
C1525      C1526   1.443       .  A
C1526      N1527   1.437       .  S
N1527      H1531   1.046       .  S
N1527      H1532   1.046       .  S
N1530      H1533   1.045       .  S
N1530      H1534   1.045       .  S
C1535      C1536   1.417       .  A
C1535      C1540   1.415       .  A
C1535      H1542   1.083       .  S
C1536      C1537   1.432   1_655  A
C1537      C1538   1.422       .  A
C1537      N1544   1.437       .  S
C1538      C1539   1.411   1_455  A
C1538      H1543   1.083       .  S
C1539      C1540   1.407       .  A
C1540      N1541   1.437       .  S
N1541      H1545   1.045       .  S
N1541      H1546   1.045       .  S
N1544      H1547   1.037       .  S
N1544      H1548   1.046       .  S
C1549      C1550   1.418       .  A
C1549      C1554   1.410       .  A
C1549      H1556   1.083       .  S
C1550      C1551   1.430   1_455  A
C1551      C1552   1.427       .  A
C1551      N1558   1.436       .  S
C1552      C1553   1.414   1_655  A
C1552      H1557   1.082       .  S
C1553      C1554   1.404       .  A
C1554      N1555   1.431       .  S
N1555      H1559   1.046       .  S
N1555      H1560   1.045       .  S
N1558      H1561   1.039       .  S
N1558      H1562   1.046       .  S
C1563      C1564   1.405       .  A
C1563      C1568   1.415       .  A
C1563      H1570   1.079       .  S
C1564      C1565   1.419       .  A
C1565      C1566   1.420       .  A
C1565      N1572   1.435       .  S
C1566      C1567   1.406       .  A
C1566      H1571   1.083       .  S
C1567      C1568   1.417       .  A
C1568      N1569   1.438       .  S
N1569      H1573   1.046       .  S
N1569      H1574   1.045       .  S
N1572      H1575   1.043       .  S
N1572      H1576   1.045       .  S
C1577      C1578   1.405       .  A
C1577      C1582   1.409       .  A
C1577      H1584   1.083       .  S
C1578      C1579   1.396       .  A
C1579      C1580   1.397       .  A
C1579      N1586   1.432       .  S
C1580      C1581   1.410       .  A
C1580      H1585   1.083       .  S
C1581      C1582   1.416       .  A
C1582      N1583   1.438       .  S
N1583      H1587   1.046       .  S
N1583      H1588   1.046       .  S
N1586      H1589   1.043       .  S
N1586      H1590   1.046       .  S
C1591      C1592   1.405       .  A
C1591      C1596   1.416       .  A
C1591      H1598   1.081       .  S
C1592      C1593   1.430       .  A
C1593      C1594   1.405       .  A
C1593      N1600   1.423       .  S
C1594      C1595   1.391       .  A
C1594      H1599   1.084       .  S
C1595      C1596   1.397       .  A
C1596      N1597   1.429       .  S
N1597      H1601   1.040       .  S
N1597      H1602   1.046       .  S
N1600      H1603   1.046       .  S
N1600      H1604   1.045       .  S
C1605      C1606   1.398   1_455  A
C1605      C1610   1.393       .  A
C1605      H1612   1.080       .  S
C1606      C1607   1.392       .  A
C1607      C1608   1.394       .  A
C1607      N1614   1.436       .  S
C1608      C1609   1.410       .  A
C1608      H1613   1.084       .  S
C1609      C1610   1.414   1_655  A
C1610      N1611   1.438       .  S
N1611      H1615   1.046       .  S
N1611      H1616   1.042       .  S
N1614      H1617   1.045       .  S
N1614      H1618   1.045       .  S
C1619      C1620   1.390       .  A
C1619      C1624   1.392       .  A
C1619      H1626   1.081       .  S
C1620      C1621   1.412       .  A
C1621      C1622   1.392       .  A
C1621      N1628   1.434       .  S
C1622      C1623   1.395       .  A
C1622      H1627   1.084   1_455  S
C1623      C1624   1.404       .  A
C1624      N1625   1.430       .  S
N1625      H1629   1.045       .  S
N1625      H1630   1.045       .  S
N1628      H1631   1.041       .  S
N1628      H1632   1.039       .  S
C1633      C1634   1.397       .  A
C1633      C1638   1.405       .  A
C1633      H1640   1.084       .  S
C1634      C1635   1.422   1_554  A
C1635      C1636   1.430       .  A
C1635      N1642   1.435       .  S
C1636      C1637   1.410   1_556  A
C1636      H1641   1.083       .  S
C1637      C1638   1.433       .  A
C1638      N1639   1.433       .  S
N1639      H1643   1.045       .  S
N1639      H1644   1.044       .  S
N1642      H1645   1.045       .  S
N1642      H1646   1.045       .  S
C1647      C1648   1.413       .  A
C1647      C1652   1.417       .  A
C1647      H1654   1.084       .  S
C1648      C1649   1.427       .  A
C1649      C1650   1.420       .  A
C1649      N1656   1.437   1_556  S
C1650      C1651   1.412       .  A
C1650      H1655   1.081   1_556  S
C1651      C1652   1.408       .  A
C1652      N1653   1.431       .  S
N1653      H1657   1.045       .  S
N1653      H1658   1.046       .  S
N1656      H1659   1.040       .  S
N1656      H1660   1.046       .  S
C1661      C1662   1.417       .  A
C1661      C1666   1.424       .  A
C1661      H1668   1.082       .  S
C1662      C1663   1.429       .  A
C1663      C1664   1.417       .  A
C1663      N1670   1.434       .  S
C1664      C1665   1.406       .  A
C1664      H1669   1.084       .  S
C1665      C1666   1.421       .  A
C1666      N1667   1.432   1_545  S
N1667      H1671   1.045       .  S
N1667      H1672   1.046       .  S
N1670      H1673   1.037       .  S
N1670      H1674   1.045       .  S
C1675      C1676   1.429       .  A
C1675      C1680   1.439       .  A
C1675      H1682   1.083       .  S
C1676      C1677   1.405       .  A
C1677      C1678   1.409       .  A
C1677      N1684   1.432   1_565  S
C1678      C1679   1.426       .  A
C1678      H1683   1.084   1_565  S
C1679      C1680   1.423       .  A
C1680      N1681   1.435       .  S
N1681      H1685   1.046       .  S
N1681      H1686   1.044       .  S
N1684      H1687   1.046       .  S
N1684      H1688   1.046       .  S
C1689      C1690   1.411   1_556  A
C1689      C1694   1.409       .  A
C1689      H1696   1.085       .  S
C1690      C1691   1.418       .  A
C1691      C1692   1.418       .  A
C1691      N1698   1.437       .  S
C1692      C1693   1.414       .  A
C1692      H1697   1.078       .  S
C1693      C1694   1.409   1_554  A
C1694      N1695   1.432       .  S
N1695      H1699   1.045       .  S
N1695      H1700   1.044       .  S
N1698      H1701   1.045       .  S
N1698      H1702   1.045       .  S
C1703      C1704   1.433       .  A
C1703      C1708   1.446       .  A
C1703      H1710   1.083       .  S
C1704      C1705   1.409       .  A
C1705      C1706   1.405       .  A
C1705      N1712   1.431       .  S
C1706      C1707   1.425       .  A
C1706      H1711   1.082       .  S
C1707      C1708   1.425       .  A
C1708      N1709   1.434       .  S
N1709      H1713   1.046       .  S
N1709      H1714   1.044       .  S
N1712      H1715   1.039   1_556  S
N1712      H1716   1.044       .  S
C1717      C1718   1.408       .  A
C1717      C1722   1.413       .  A
C1717      H1724   1.079   1_545  S
C1718      C1719   1.420       .  A
C1719      C1720   1.432       .  A
C1719      N1726   1.429       .  S
C1720      C1721   1.414       .  A
C1720      H1725   1.083       .  S
C1721      C1722   1.416       .  A
C1722      N1723   1.438   1_545  S
N1723      H1727   1.046       .  S
N1723      H1728   1.046       .  S
N1726      H1729   1.045       .  S
N1726      H1730   1.045       .  S
C1731      C1732   1.410   1_565  A
C1731      C1736   1.431       .  A
C1731      H1738   1.083       .  S
C1732      C1733   1.421       .  A
C1733      C1734   1.414       .  A
C1733      N1740   1.433       .  S
C1734      C1735   1.406       .  A
C1734      H1739   1.084       .  S
C1735      C1736   1.424   1_545  A
C1736      N1737   1.428       .  S
N1737      H1741   1.045       .  S
N1737      H1742   1.046       .  S
N1740      H1743   1.046       .  S
N1740      H1744   1.046       .  S
C1745      C1746   1.417       .  A
C1745      C1750   1.430       .  A
C1745      H1752   1.083       .  S
C1746      C1747   1.406       .  A
C1747      C1748   1.409       .  A
C1747      N1754   1.437       .  S
C1748      C1749   1.418       .  A
C1748      H1753   1.083       .  S
C1749      C1750   1.427       .  A
C1750      N1751   1.436       .  S
N1751      H1755   1.046       .  S
N1751      H1756   1.040       .  S
N1754      H1757   1.042       .  S
N1754      H1758   1.045       .  S
C1759      C1760   1.409       .  A
C1759      C1764   1.414       .  A
C1759      H1766   1.084       .  S
C1760      C1761   1.415       .  A
C1761      C1762   1.412       .  A
C1761      N1768   1.432       .  S
C1762      C1763   1.410       .  A
C1762      H1767   1.082       .  S
C1763      C1764   1.407       .  A
C1764      N1765   1.431       .  S
N1765      H1769   1.046       .  S
N1765      H1770   1.045       .  S
N1768      H1771   1.045       .  S
N1768      H1772   1.045       .  S
C1773      C1774   1.414   1_565  A
C1773      C1778   1.429       .  A
C1773      H1780   1.084       .  S
C1774      C1775   1.424       .  A
C1775      C1776   1.424       .  A
C1775      N1782   1.437       .  S
C1776      C1777   1.413       .  A
C1776      H1781   1.083       .  S
C1777      C1778   1.420   1_545  A
C1778      N1779   1.434       .  S
N1779      H1783   1.045       .  S
N1779      H1784   1.040       .  S
N1782      H1785   1.045       .  S
N1782      H1786   1.046       .  S
C1787      C1788   1.416       .  A
C1787      C1792   1.436       .  A
C1787      H1794   1.083       .  S
C1788      C1789   1.425       .  A
C1789      C1790   1.409       .  A
C1789      N1796   1.439   1_565  S
C1790      C1791   1.407       .  A
C1790      H1795   1.075   1_565  S
C1791      C1792   1.423       .  A
C1792      N1793   1.430       .  S
N1793      H1797   1.045       .  S
N1793      H1798   1.045       .  S
N1796      H1799   1.045       .  S
N1796      H1800   1.046       .  S
C1801      C1802   1.398       .  A
C1801      C1806   1.399       .  A
C1801      H1808   1.084       .  S
C1802      C1803   1.405       .  A
C1803      C1804   1.393       .  A
C1803      N1810   1.433       .  S
C1804      C1805   1.402       .  A
C1804      H1809   1.085       .  S
C1805      C1806   1.411       .  A
C1806      N1807   1.437       .  S
N1807      H1811   1.046       .  S
N1807      H1812   1.046       .  S
N1810      H1813   1.046       .  S
N1810      H1814   1.045       .  S
C1815      C1816   1.411       .  A
C1815      C1820   1.408       .  A
C1815      H1822   1.084       .  S
C1816      C1817   1.431       .  A
C1817      C1818   1.402       .  A
C1817      N1824   1.433       .  S
C1818      C1819   1.402       .  A
C1818      H1823   1.080       .  S
C1819      C1820   1.391       .  A
C1820      N1821   1.424       .  S
N1821      H1825   1.045       .  S
N1821      H1826   1.039       .  S
N1824      H1827   1.045       .  S
N1824      H1828   1.040       .  S
C1829      C1830   1.410   1_556  A
C1829      C1834   1.413       .  A
C1829      H1836   1.085       .  S
C1830      C1831   1.422       .  A
C1831      C1832   1.420       .  A
C1831      N1838   1.437       .  S
C1832      C1833   1.410       .  A
C1832      H1837   1.083       .  S
C1833      C1834   1.423   1_554  A
C1834      N1835   1.437       .  S
N1835      H1839   1.045       .  S
N1835      H1840   1.042       .  S
N1838      H1841   1.045       .  S
N1838      H1842   1.046       .  S
C1843      C1844   1.420       .  A
C1843      C1848   1.440       .  A
C1843      H1850   1.083       .  S
C1844      C1845   1.433       .  A
C1845      C1846   1.413       .  A
C1845      N1852   1.431   1_556  S
C1846      C1847   1.406       .  A
C1846      H1851   1.086       .  S
C1847      C1848   1.430       .  A
C1848      N1849   1.435       .  S
N1849      H1853   1.045       .  S
N1849      H1854   1.045       .  S
N1852      H1855   1.034       .  S
N1852      H1856   1.044       .  S
C1857      C1858   1.401       .  A
C1857      C1862   1.405       .  A
C1857      H1864   1.081       .  S
C1858      C1859   1.419       .  A
C1859      C1860   1.428       .  A
C1859      N1866   1.435       .  S
C1860      C1861   1.411       .  A
C1860      H1865   1.083       .  S
C1861      C1862   1.422       .  A
C1862      N1863   1.438       .  S
N1863      H1867   1.045       .  S
N1863      H1868   1.044       .  S
N1866      H1869   1.045       .  S
N1866      H1870   1.045       .  S
C1871      C1872   1.421       .  A
C1871      C1876   1.407       .  A
C1871      H1878   1.083       .  S
C1872      C1873   1.422       .  A
C1873      C1874   1.425       .  A
C1873      N1880   1.436       .  S
C1874      C1875   1.419       .  A
C1874      H1879   1.080       .  S
C1875      C1876   1.403       .  A
C1876      N1877   1.439       .  S
N1877      H1881   1.045       .  S
N1877      H1882   1.044       .  S
N1880      H1883   1.041       .  S
N1880      H1884   1.045       .  S
C1885      C1886   1.392       .  A
C1885      C1890   1.389       .  A
C1885      H1892   1.084       .  S
C1886      C1887   1.409       .  A
C1887      C1888   1.391       .  A
C1887      N1894   1.437       .  S
C1888      C1889   1.394       .  A
C1888      H1893   1.084       .  S
C1889      C1890   1.404       .  A
C1890      N1891   1.430       .  S
N1891      H1895   1.040       .  S
N1891      H1896   1.045       .  S
N1894      H1897   1.044       .  S
N1894      H1898   1.040       .  S
C1899      C1900   1.399       .  A
C1899      C1904   1.402       .  A
C1899      H1906   1.077       .  S
C1900      C1901   1.408       .  A
C1901      C1902   1.352       .  A
C1901      N1908   1.438   1_556  S
C1902      C1903   1.396       .  A
C1902      H1907   1.085       .  S
C1903      C1904   1.398       .  A
C1904      N1905   1.434       .  S
N1905      H1909   1.045       .  S
N1905      H1910   1.046       .  S
N1908      H1911   1.044       .  S
N1908      H1912   1.045       .  S
C1913      C1914   1.404       .  A
C1913      C1918   1.395       .  A
C1913      H1920   1.083       .  S
C1914      C1915   1.419       .  A
C1915      C1916   1.396       .  A
C1915      N1922   1.433       .  S
C1916      C1917   1.400       .  A
C1916      H1921   1.085       .  S
C1917      C1918   1.399       .  A
C1918      N1919   1.436       .  S
N1919      H1923   1.045       .  S
N1919      H1924   1.045       .  S
N1922      H1925   1.044       .  S
N1922      H1926   1.045   1_554  S
C1927      C1928   1.405       .  A
C1927      C1932   1.403       .  A
C1927      H1934   1.085       .  S
C1928      C1929   1.419       .  A
C1929      C1930   1.419       .  A
C1929      N1936   1.436   1_545  S
C1930      C1931   1.411       .  A
C1930      H1935   1.082   1_545  S
C1931      C1932   1.419       .  A
C1932      N1933   1.429       .  S
N1933      H1937   1.038       .  S
N1933      H1938   1.044       .  S
N1936      H1939   1.045       .  S
N1936      H1940   1.045       .  S
C1941      C1942   1.400       .  A
C1941      C1946   1.407       .  A
C1941      H1948   1.083   1_545  S
C1942      C1943   1.423       .  A
C1943      C1944   1.435       .  A
C1943      N1950   1.429       .  S
C1944      C1945   1.414       .  A
C1944      H1949   1.083       .  S
C1945      C1946   1.429       .  A
C1946      N1947   1.438   1_545  S
N1947      H1951   1.046       .  S
N1947      H1952   1.044       .  S
N1950      H1953   1.045       .  S
N1950      H1954   1.046       .  S
C1955      C1956   1.413       .  A
C1955      C1960   1.429       .  A
C1955      H1962   1.083       .  S
C1956      C1957   1.425       .  A
C1957      C1958   1.407       .  A
C1957      N1964   1.438       .  S
C1958      C1959   1.404       .  A
C1958      H1963   1.084       .  S
C1959      C1960   1.420       .  A
C1960      N1961   1.430       .  S
N1961      H1965   1.044       .  S
N1961      H1966   1.045       .  S
N1964      H1967   1.045       .  S
N1964      H1968   1.046       .  S
C1969      C1970   1.402       .  A
C1969      C1974   1.403       .  A
C1969      H1976   1.085       .  S
C1970      C1971   1.420       .  A
C1971      C1972   1.419       .  A
C1971      N1978   1.437       .  S
C1972      C1973   1.409       .  A
C1972      H1977   1.083       .  S
C1973      C1974   1.413       .  A
C1974      N1975   1.428       .  S
N1975      H1979   1.045       .  S
N1975      H1980   1.046       .  S
N1978      H1981   1.045       .  S
N1978      H1982   1.045       .  S
C1983      C1984   1.415       .  A
C1983      C1988   1.406       .  A
C1983      H1990   1.082       .  S
C1984      C1985   1.422       .  A
C1985      C1986   1.391       .  A
C1985      N1992   1.432       .  S
C1986      C1987   1.398       .  A
C1986      H1991   1.078       .  S
C1987      C1988   1.388       .  A
C1988      N1989   1.430       .  S
N1989      H1993   1.041       .  S
N1989      H1994   1.044       .  S
N1992      H1995   1.045       .  S
N1992      H1996   1.041       .  S
C1997      C1998   1.399       .  A
C1997      C2002   1.389       .  A
C1997      H2004   1.082       .  S
C1998      C1999   1.408       .  A
C1999      C2000   1.387       .  A
C1999      N2006   1.433       .  S
C2000      C2001   1.399       .  A
C2000      H2005   1.078       .  S
C2001      C2002   1.405       .  A
C2002      N2003   1.430       .  S
N2003      H2007   1.046       .  S
N2003      H2008   1.039       .  S
N2006      H2009   1.041   1_545  S
N2006      H2010   1.045   1_545  S
C2011      C2012   1.405       .  A
C2011      C2016   1.398       .  A
C2011      H2018   1.083       .  S
C2012      C2013   1.416       .  A
C2013      C2014   1.391       .  A
C2013      N2020   1.435       .  S
C2014      C2015   1.397       .  A
C2014      H2019   1.085       .  S
C2015      C2016   1.409       .  A
C2016      N2017   1.435       .  S
N2017      H2021   1.046       .  S
N2017      H2022   1.046       .  S
N2020      H2023   1.045       .  S
N2020      H2024   1.046       .  S
C2025      C2026   1.407       .  A
C2025      C2030   1.421       .  A
C2025      H2032   1.084       .  S
C2026      C2027   1.416   1_554  A
C2027      C2028   1.409       .  A
C2027      N2034   1.433       .  S
C2028      C2029   1.407   1_556  A
C2028      H2033   1.082       .  S
C2029      C2030   1.419       .  A
C2030      N2031   1.434       .  S
N2031      H2035   1.045       .  S
N2031      H2036   1.043       .  S
N2034      H2037   1.046       .  S
N2034      H2038   1.045       .  S
C2039      C2040   1.412       .  A
C2039      C2044   1.432       .  A
C2039      H2046   1.083       .  S
C2040      C2041   1.449   1_556  A
C2041      C2042   1.393   1_554  A
C2041      N2048   1.449       .  S
C2042      C2043   1.388       .  A
C2042      H2047   1.085   1_556  S
C2043      C2044   1.420       .  A
C2044      N2045   1.435       .  S
N2045      H2049   1.045       .  S
N2045      H2050   1.045       .  S
N2048      H2051   1.037       .  S
N2048      H2052   1.036       .  S
C2053      C2054   1.424       .  A
C2053      C2058   1.393       .  A
C2053      H2060   1.082       .  S
C2054      C2055   1.426       .  A
C2055      C2056   1.430       .  A
C2055      N2062   1.435       .  S
C2056      C2057   1.420       .  A
C2056      H2061   1.083       .  S
C2057      C2058   1.397       .  A
C2058      N2059   1.433       .  S
N2059      H2063   1.046       .  S
N2059      H2064   1.045       .  S
N2062      H2065   1.041       .  S
N2062      H2066   1.046       .  S
C2067      C2068   1.410       .  A
C2067      C2072   1.426       .  A
C2067      H2074   1.083       .  S
C2068      C2069   1.424       .  A
C2069      C2070   1.395       .  A
C2069      N2076   1.434       .  S
C2070      C2071   1.397       .  A
C2070      H2075   1.080       .  S
C2071      C2072   1.418       .  A
C2072      N2073   1.436       .  S
N2073      H2077   1.045       .  S
N2073      H2078   1.045       .  S
N2076      H2079   1.044       .  S
N2076      H2080   1.046       .  S
C2081      C2082   1.406       .  A
C2081      C2086   1.394       .  A
C2081      H2088   1.085       .  S
C2082      C2083   1.410       .  A
C2083      C2084   1.390       .  A
C2083      N2090   1.432       .  S
C2084      C2085   1.403       .  A
C2084      H2089   1.084       .  S
C2085      C2086   1.404       .  A
C2086      N2087   1.434       .  S
N2087      H2091   1.046       .  S
N2087      H2092   1.046       .  S
N2090      H2093   1.043       .  S
N2090      H2094   1.045       .  S
C2095      C2096   1.393       .  A
C2095      C2100   1.389       .  A
C2095      H2102   1.074       .  S
C2096      C2097   1.409       .  A
C2097      C2098   1.404       .  A
C2097      N2104   1.433       .  S
C2098      C2099   1.404       .  A
C2098      H2103   1.080       .  S
C2099      C2100   1.418       .  A
C2100      N2101   1.434       .  S
N2101      H2105   1.045       .  S
N2101      H2106   1.046       .  S
N2104      H2107   1.046       .  S
N2104      H2108   1.045       .  S
C2109      C2110   1.403       .  A
C2109      C2114   1.394       .  A
C2109      H2116   1.084       .  S
C2110      C2111   1.413       .  A
C2111      C2112   1.400       .  A
C2111      N2118   1.438       .  S
C2112      C2113   1.405       .  A
C2112      H2117   1.085       .  S
C2113      C2114   1.401       .  A
C2114      N2115   1.431       .  S
N2115      H2119   1.045       .  S
N2115      H2120   1.046       .  S
N2118      H2121   1.044       .  S
N2118      H2122   1.046       .  S
C2123      C2124   1.397   1_556  A
C2123      C2128   1.396       .  A
C2123      H2130   1.084       .  S
C2124      C2125   1.394       .  A
C2125      C2126   1.391       .  A
C2125      N2132   1.432       .  S
C2126      C2127   1.399   1_554  A
C2126      H2131   1.083       .  S
C2127      C2128   1.410       .  A
C2128      N2129   1.437       .  S
N2129      H2133   1.046       .  S
N2129      H2134   1.045       .  S
N2132      H2135   1.044       .  S
N2132      H2136   1.045       .  S
C2137      C2138   1.411       .  A
C2137      C2142   1.421       .  A
C2137      H2144   1.084       .  S
C2138      C2139   1.420   1_556  A
C2139      C2140   1.416       .  A
C2139      N2146   1.436       .  S
C2140      C2141   1.409   1_554  A
C2140      H2145   1.083       .  S
C2141      C2142   1.414       .  A
C2142      N2143   1.436       .  S
N2143      H2147   1.045       .  S
N2143      H2148   1.044       .  S
N2146      H2149   1.044       .  S
N2146      H2150   1.044       .  S
C2151      C2152   1.396   1_554  A
C2151      C2156   1.397       .  A
C2151      H2158   1.083       .  S
C2152      C2153   1.440       .  A
C2153      C2154   1.438       .  A
C2153      N2160   1.435       .  S
C2154      C2155   1.412       .  A
C2154      H2159   1.083       .  S
C2155      C2156   1.434   1_556  A
C2156      N2157   1.436       .  S
N2157      H2161   1.044       .  S
N2157      H2162   1.046       .  S
N2160      H2163   1.038       .  S
N2160      H2164   1.045       .  S
C2165      C2166   1.408   1_655  A
C2165      C2170   1.412       .  A
C2165      H2172   1.084       .  S
C2166      C2167   1.421       .  A
C2167      C2168   1.419       .  A
C2167      N2174   1.437       .  S
C2168      C2169   1.412       .  A
C2168      H2173   1.083       .  S
C2169      C2170   1.412   1_455  A
C2170      N2171   1.429       .  S
N2171      H2175   1.046       .  S
N2171      H2176   1.046       .  S
N2174      H2177   1.044       .  S
N2174      H2178   1.046       .  S
C2179      C2180   1.417       .  A
C2179      C2184   1.446       .  A
C2179      H2186   1.082       .  S
C2180      C2181   1.439   1_655  A
C2181      C2182   1.400       .  A
C2181      N2188   1.436       .  S
C2182      C2183   1.390   1_455  A
C2182      H2187   1.078       .  S
C2183      C2184   1.431       .  A
C2184      N2185   1.433       .  S
N2185      H2189   1.045       .  S
N2185      H2190   1.045       .  S
N2188      H2191   1.045       .  S
N2188      H2192   1.044       .  S
C2193      C2194   1.404   1_556  A
C2193      C2198   1.412       .  A
C2193      H2200   1.083       .  S
C2194      C2195   1.416       .  A
C2195      C2196   1.422       .  A
C2195      N2202   1.435       .  S
C2196      C2197   1.407       .  A
C2196      H2201   1.083       .  S
C2197      C2198   1.416   1_554  A
C2198      N2199   1.433       .  S
N2199      H2203   1.045       .  S
N2199      H2204   1.046       .  S
N2202      H2205   1.044       .  S
N2202      H2206   1.045       .  S
C2207      C2208   1.410   1_455  A
C2207      C2212   1.427       .  A
C2207      H2214   1.083       .  S
C2208      C2209   1.422       .  A
C2209      C2210   1.411       .  A
C2209      N2216   1.439       .  S
C2210      C2211   1.408       .  A
C2210      H2215   1.084       .  S
C2211      C2212   1.421   1_655  A
C2212      N2213   1.435       .  S
N2213      H2217   1.045       .  S
N2213      H2218   1.041       .  S
N2216      H2219   1.044       .  S
N2216      H2220   1.046       .  S
C2221      C2222   1.415       .  A
C2221      C2226   1.411       .  A
C2221      H2228   1.085   1_556  S
C2222      C2223   1.426       .  A
C2223      C2224   1.433       .  A
C2223      N2230   1.436       .  S
C2224      C2225   1.417       .  A
C2224      H2229   1.082       .  S
C2225      C2226   1.413       .  A
C2226      N2227   1.431   1_556  S
N2227      H2231   1.044       .  S
N2227      H2232   1.045       .  S
N2230      H2233   1.043       .  S
N2230      H2234   1.045       .  S
C2235      C2236   1.414       .  A
C2235      C2240   1.408       .  A
C2235      H2242   1.085       .  S
C2236      C2237   1.423   1_455  A
C2237      C2238   1.426       .  A
C2237      N2244   1.436       .  S
C2238      C2239   1.415   1_655  A
C2238      H2243   1.083       .  S
C2239      C2240   1.409       .  A
C2240      N2241   1.438       .  S
N2241      H2245   1.045       .  S
N2241      H2246   1.039       .  S
N2244      H2247   1.043       .  S
N2244      H2248   1.046       .  S
C2249      C2250   1.417       .  A
C2249      C2254   1.424       .  A
C2249      H2256   1.084       .  S
C2250      C2251   1.429       .  A
C2251      C2252   1.440       .  A
C2251      N2258   1.436       .  S
C2252      C2253   1.422       .  A
C2252      H2257   1.083       .  S
C2253      C2254   1.422       .  A
C2254      N2255   1.440       .  S
N2255      H2259   1.045       .  S
N2255      H2260   1.040       .  S
N2258      H2261   1.043       .  S
N2258      H2262   1.044       .  S
C2263      C2264   1.411       .  A
C2263      C2268   1.426       .  A
C2263      H2270   1.080       .  S
C2264      C2265   1.417       .  A
C2265      C2266   1.419       .  A
C2265      N2272   1.434       .  S
C2266      C2267   1.409       .  A
C2266      H2271   1.084       .  S
C2267      C2268   1.418       .  A
C2268      N2269   1.436       .  S
N2269      H2273   1.046       .  S
N2269      H2274   1.045       .  S
N2272      H2275   1.044       .  S
N2272      H2276   1.046       .  S
C2277      C2278   1.413       .  A
C2277      C2282   1.418       .  A
C2277      H2284   1.084       .  S
C2278      C2279   1.420   1_655  A
C2279      C2280   1.426       .  A
C2279      N2286   1.435       .  S
C2280      C2281   1.415   1_455  A
C2280      H2285   1.083       .  S
C2281      C2282   1.412       .  A
C2282      N2283   1.436       .  S
N2283      H2287   1.045       .  S
N2283      H2288   1.044       .  S
N2286      H2289   1.043       .  S
N2286      H2290   1.045       .  S
C2291      C2292   1.411   1_655  A
C2291      C2296   1.421       .  A
C2291      H2298   1.083       .  S
C2292      C2293   1.413       .  A
C2293      C2294   1.413       .  A
C2293      N2300   1.438       .  S
C2294      C2295   1.411       .  A
C2294      H2299   1.084       .  S
C2295      C2296   1.423   1_455  A
C2296      N2297   1.437       .  S
N2297      H2301   1.046       .  S
N2297      H2302   1.042       .  S
N2300      H2303   1.041       .  S
N2300      H2304   1.045       .  S
C2305      C2306   1.408   1_455  A
C2305      C2310   1.397       .  A
C2305      H2312   1.082       .  S
C2306      C2307   1.394       .  A
C2307      C2308   1.397       .  A
C2307      N2314   1.432       .  S
C2308      C2309   1.402   1_655  A
C2308      H2313   1.078       .  S
C2309      C2310   1.403       .  A
C2310      N2311   1.437       .  S
N2311      H2315   1.046       .  S
N2311      H2316   1.045       .  S
N2314      H2317   1.046       .  S
N2314      H2318   1.045       .  S
C2319      C2320   1.399   1_655  A
C2319      C2324   1.390       .  A
C2319      H2326   1.069       .  S
C2320      C2321   1.406       .  A
C2321      C2322   1.403       .  A
C2321      N2328   1.433       .  S
C2322      C2323   1.404   1_455  A
C2322      H2327   1.084       .  S
C2323      C2324   1.397       .  A
C2324      N2325   1.434       .  S
N2325      H2329   1.046       .  S
N2325      H2330   1.046       .  S
N2328      H2331   1.046       .  S
N2328      H2332   1.044       .  S
C2333      C2334   1.397       .  A
C2333      C2338   1.398       .  A
C2333      H2340   1.074       .  S
C2334      C2335   1.423       .  A
C2335      C2336   1.434       .  A
C2335      N2342   1.434       .  S
C2336      C2337   1.412       .  A
C2336      H2341   1.083       .  S
C2337      C2338   1.420       .  A
C2338      N2339   1.440       .  S
N2339      H2343   1.045       .  S
N2339      H2344   1.046       .  S
N2342      H2345   1.044       .  S
N2342      H2346   1.046       .  S
C2347      C2348   1.408       .  A
C2347      C2352   1.416       .  A
C2347      H2354   1.084       .  S
C2348      C2349   1.420       .  A
C2349      C2350   1.420       .  A
C2349      N2356   1.437       .  S
C2350      C2351   1.412       .  A
C2350      H2355   1.080       .  S
C2351      C2352   1.418       .  A
C2352      N2353   1.435       .  S
N2353      H2357   1.045       .  S
N2353      H2358   1.043       .  S
N2356      H2359   1.045       .  S
N2356      H2360   1.046       .  S
C2361      C2362   1.409   1_554  A
C2361      C2366   1.427       .  A
C2361      H2368   1.083       .  S
C2362      C2363   1.423       .  A
C2363      C2364   1.409       .  A
C2363      N2370   1.439       .  S
C2364      C2365   1.404       .  A
C2364      H2369   1.080       .  S
C2365      C2366   1.422   1_556  A
C2366      N2367   1.436       .  S
N2367      H2371   1.045       .  S
N2367      H2372   1.040       .  S
N2370      H2373   1.044       .  S
N2370      H2374   1.046       .  S
C2375      C2376   1.411   1_554  A
C2375      C2380   1.415   1_554  A
C2375      H2382   1.084       .  S
C2376      C2377   1.430       .  A
C2377      C2378   1.428       .  A
C2377      N2384   1.437       .  S
C2378      C2379   1.414       .  A
C2378      H2383   1.083       .  S
C2379      C2380   1.420       .  A
C2380      N2381   1.435   1_556  S
N2381      H2385   1.041       .  S
N2381      H2386   1.045       .  S
N2384      H2387   1.039       .  S
N2384      H2388   1.046       .  S
C2389      C2390   1.407       .  A
C2389      C2394   1.396       .  A
C2389      H2396   1.084       .  S
C2390      C2391   1.410       .  A
C2391      C2392   1.394       .  A
C2391      N2398   1.435       .  S
C2392      C2393   1.405       .  A
C2392      H2397   1.084       .  S
C2393      C2394   1.401       .  A
C2394      N2395   1.430       .  S
N2395      H2399   1.046       .  S
N2395      H2400   1.045       .  S
N2398      H2401   1.043       .  S
N2398      H2402   1.046       .  S
C2403      C2404   1.394       .  A
C2403      C2408   1.393   1_556  A
C2403      H2410   1.079   1_556  S
C2404      C2405   1.401       .  A
C2405      C2406   1.401       .  A
C2405      N2412   1.431       .  S
C2406      C2407   1.401       .  A
C2406      H2411   1.073       .  S
C2407      C2408   1.414   1_556  A
C2408      N2409   1.439       .  S
N2409      H2413   1.045       .  S
N2409      H2414   1.046       .  S
N2412      H2415   1.045       .  S
N2412      H2416   1.045       .  S
C2417      C2418   1.402       .  A
C2417      C2422   1.396       .  A
C2417      H2424   1.084       .  S
C2418      C2419   1.391   1_554  A
C2419      C2420   1.389   1_556  A
C2419      N2426   1.440       .  S
C2420      C2421   1.401       .  A
C2420      H2425   1.073       .  S
C2421      C2422   1.407       .  A
C2422      N2423   1.436       .  S
N2423      H2427   1.045       .  S
N2423      H2428   1.046       .  S
N2426      H2429   1.043       .  S
N2426      H2430   1.046       .  S
C2431      C2432   1.406       .  A
C2431      C2436   1.414       .  A
C2431      H2438   1.086       .  S
C2432      C2433   1.425       .  A
C2433      C2434   1.431       .  A
C2433      N2440   1.436       .  S
C2434      C2435   1.416       .  A
C2434      H2439   1.080       .  S
C2435      C2436   1.431       .  A
C2436      N2437   1.431       .  S
N2437      H2441   1.042       .  S
N2437      H2442   1.034       .  S
N2440      H2443   1.045       .  S
N2440      H2444   1.045       .  S
C2445      C2446   1.417   1_455  A
C2445      C2450   1.423       .  A
C2445      H2452   1.082       .  S
C2446      C2447   1.408       .  A
C2447      C2448   1.411       .  A
C2447      N2454   1.439       .  S
C2448      C2449   1.417       .  A
C2448      H2453   1.084       .  S
C2449      C2450   1.423   1_655  A
C2450      N2451   1.435       .  S
N2451      H2455   1.044       .  S
N2451      H2456   1.041       .  S
N2454      H2457   1.041       .  S
N2454      H2458   1.045       .  S
C2459      C2460   1.400       .  A
C2459      C2464   1.409       .  A
C2459      H2466   1.083       .  S
C2460      C2461   1.418   1_455  A
C2461      C2462   1.419       .  A
C2461      N2468   1.430       .  S
C2462      C2463   1.405   1_655  A
C2462      H2467   1.083       .  S
C2463      C2464   1.418       .  A
C2464      N2465   1.438       .  S
N2465      H2469   1.046       .  S
N2465      H2470   1.046       .  S
N2468      H2471   1.046       .  S
N2468      H2472   1.045       .  S
C2473      C2474   1.403       .  A
C2473      C2478   1.407       .  A
C2473      H2480   1.086       .  S
C2474      C2475   1.419       .  A
C2475      C2476   1.417       .  A
C2475      N2482   1.431       .  S
C2476      C2477   1.410       .  A
C2476      H2481   1.083       .  S
C2477      C2478   1.430       .  A
C2478      N2479   1.435       .  S
N2479      H2483   1.042       .  S
N2479      H2484   1.036       .  S
N2482      H2485   1.045       .  S
N2482      H2486   1.045       .  S
C2487      C2488   1.398       .  A
C2487      C2492   1.408       .  A
C2487      H2494   1.081       .  S
C2488      C2489   1.404       .  A
C2489      C2490   1.392       .  A
C2489      N2496   1.427       .  S
C2490      C2491   1.404       .  A
C2490      H2495   1.082       .  S
C2491      C2492   1.420       .  A
C2492      N2493   1.432       .  S
N2493      H2497   1.044       .  S
N2493      H2498   1.042       .  S
N2496      H2499   1.045       .  S
N2496      H2500   1.042       .  S
C2501      C2502   1.387   1_655  A
C2501      C2506   1.381       .  A
C2501      H2508   1.080       .  S
C2502      C2503   1.405       .  A
C2503      C2504   1.397       .  A
C2503      N2510   1.432       .  S
C2504      C2505   1.396       .  A
C2504      H2509   1.080       .  S
C2505      C2506   1.419   1_455  A
C2506      N2507   1.435       .  S
N2507      H2511   1.041       .  S
N2507      H2512   1.046       .  S
N2510      H2513   1.045       .  S
N2510      H2514   1.045       .  S
C2515      C2516   1.400       .  A
C2515      C2520   1.395       .  A
C2515      H2522   1.085       .  S
C2516      C2517   1.406       .  A
C2517      C2518   1.391       .  A
C2517      N2524   1.439       .  S
C2518      C2519   1.399       .  A
C2518      H2523   1.084       .  S
C2519      C2520   1.410       .  A
C2520      N2521   1.439       .  S
N2521      H2525   1.046       .  S
N2521      H2526   1.046       .  S
N2524      H2527   1.041       .  S
N2524      H2528   1.045       .  S
C2529      C2530   1.409       .  A
C2529      C2534   1.425       .  A
C2529      H2536   1.083       .  S
C2530      C2531   1.425   1_554  A
C2531      C2532   1.407       .  A
C2531      N2538   1.434       .  S
C2532      C2533   1.401   1_556  A
C2532      H2537   1.083       .  S
C2533      C2534   1.418       .  A
C2534      N2535   1.431       .  S
N2535      H2539   1.045       .  S
N2535      H2540   1.045       .  S
N2538      H2541   1.043       .  S
N2538      H2542   1.046       .  S
C2543      C2544   1.412       .  A
C2543      C2548   1.438       .  A
C2543      H2550   1.083       .  S
C2544      C2545   1.406       .  A
C2545      C2546   1.406       .  A
C2545      N2552   1.438   1_556  S
C2546      C2547   1.406       .  A
C2546      H2551   1.073   1_556  S
C2547      C2548   1.430       .  A
C2548      N2549   1.432       .  S
N2549      H2553   1.046       .  S
N2549      H2554   1.045       .  S
N2552      H2555   1.043       .  S
N2552      H2556   1.040   1_554  S
C2557      C2558   1.424       .  A
C2557      C2562   1.420       .  A
C2557      H2564   1.083       .  S
C2558      C2559   1.435       .  A
C2559      C2560   1.448       .  A
C2559      N2566   1.435       .  S
C2560      C2561   1.426       .  A
C2560      H2565   1.083       .  S
C2561      C2562   1.415       .  A
C2562      N2563   1.432       .  S
N2563      H2567   1.045       .  S
N2563      H2568   1.045       .  S
N2566      H2569   1.041       .  S
N2566      H2570   1.045       .  S
C2571      C2572   1.419       .  A
C2571      C2576   1.428       .  A
C2571      H2578   1.083       .  S
C2572      C2573   1.409       .  A
C2573      C2574   1.401       .  A
C2573      N2580   1.429       .  S
C2574      C2575   1.411       .  A
C2574      H2579   1.084       .  S
C2575      C2576   1.424       .  A
C2576      N2577   1.436       .  S
N2577      H2581   1.046       .  S
N2577      H2582   1.041       .  S
N2580      H2583   1.046       .  S
N2580      H2584   1.045       .  S
C2585      C2586   1.404       .  A
C2585      C2590   1.396       .  A
C2585      H2592   1.084       .  S
C2586      C2587   1.407       .  A
C2587      C2588   1.397       .  A
C2587      N2594   1.432       .  S
C2588      C2589   1.404       .  A
C2588      H2593   1.085       .  S
C2589      C2590   1.401       .  A
C2590      N2591   1.432       .  S
N2591      H2595   1.045       .  S
N2591      H2596   1.046       .  S
N2594      H2597   1.045       .  S
N2594      H2598   1.044       .  S
C2599      C2600   1.379       .  A
C2599      C2604   1.363       .  A
C2599      H2606   1.078       .  S
C2600      C2601   1.402       .  A
C2601      C2602   1.396       .  A
C2601      N2608   1.431       .  S
C2602      C2603   1.402       .  A
C2602      H2607   1.083       .  S
C2603      C2604   1.427       .  A
C2604      N2605   1.437       .  S
N2605      H2609   1.045       .  S
N2605      H2610   1.039       .  S
N2608      H2611   1.046       .  S
N2608      H2612   1.045       .  S
C2613      C2614   1.399       .  A
C2613      C2618   1.393       .  A
C2613      H2620   1.084       .  S
C2614      C2615   1.399       .  A
C2615      C2616   1.380       .  A
C2615      N2622   1.432       .  S
C2616      C2617   1.397       .  A
C2616      H2621   1.084       .  S
C2617      C2618   1.411       .  A
C2618      N2619   1.438       .  S
N2619      H2623   1.046       .  S
N2619      H2624   1.045       .  S
N2622      H2625   1.046       .  S
N2622      H2626   1.042       .  S
C2627      C2628   1.393       .  A
C2627      C2632   1.396       .  A
C2627      H2634   1.084       .  S
C2628      C2629   1.414       .  A
C2629      C2630   1.399       .  A
C2629      N2636   1.433       .  S
C2630      C2631   1.394       .  A
C2630      H2635   1.084       .  S
C2631      C2632   1.413       .  A
C2632      N2633   1.433       .  S
N2633      H2637   1.044       .  S
N2633      H2638   1.045       .  S
N2636      H2639   1.045       .  S
N2636      H2640   1.046       .  S
C2641      C2642   1.420       .  A
C2641      C2646   1.426       .  A
C2641      H2648   1.083       .  S
C2642      C2643   1.405       .  A
C2643      C2644   1.395       .  A
C2643      N2650   1.428       .  S
C2644      C2645   1.411       .  A
C2644      H2649   1.085       .  S
C2645      C2646   1.422       .  A
C2646      N2647   1.435       .  S
N2647      H2651   1.045       .  S
N2647      H2652   1.042       .  S
N2650      H2653   1.044       .  S
N2650      H2654   1.044       .  S
C2655      C2656   1.409       .  A
C2655      C2660   1.413       .  A
C2655      H2662   1.084       .  S
C2656      C2657   1.426       .  A
C2657      C2658   1.424       .  A
C2657      N2664   1.437       .  S
C2658      C2659   1.416       .  A
C2658      H2663   1.084       .  S
C2659      C2660   1.415       .  A
C2660      N2661   1.429       .  S
N2661      H2665   1.045       .  S
N2661      H2666   1.046       .  S
N2664      H2667   1.041       .  S
N2664      H2668   1.045       .  S
C2669      C2670   1.408       .  A
C2669      C2674   1.412       .  A
C2669      H2676   1.085       .  S
C2670      C2671   1.424       .  A
C2671      C2672   1.428       .  A
C2671      N2678   1.436       .  S
C2672      C2673   1.416       .  A
C2672      H2677   1.083       .  S
C2673      C2674   1.431       .  A
C2674      N2675   1.437       .  S
N2675      H2679   1.044       .  S
N2675      H2680   1.039       .  S
N2678      H2681   1.044       .  S
N2678      H2682   1.046       .  S
C2683      C2684   1.414       .  A
C2683      C2688   1.430       .  A
C2683      H2690   1.083       .  S
C2684      C2685   1.426       .  A
C2685      C2686   1.418       .  A
C2685      N2692   1.438       .  S
C2686      C2687   1.409       .  A
C2686      H2691   1.080       .  S
C2687      C2688   1.422       .  A
C2688      N2689   1.431       .  S
N2689      H2693   1.045       .  S
N2689      H2694   1.045       .  S
N2692      H2695   1.045       .  S
N2692      H2696   1.046       .  S
C2697      C2698   1.410       .  A
C2697      C2702   1.416       .  A
C2697      H2704   1.084       .  S
C2698      C2699   1.425       .  A
C2699      C2700   1.427       .  A
C2699      N2706   1.436       .  S
C2700      C2701   1.414       .  A
C2700      H2705   1.083       .  S
C2701      C2702   1.428       .  A
C2702      N2703   1.437       .  S
N2703      H2707   1.045       .  S
N2703      H2708   1.040       .  S
N2706      H2709   1.043       .  S
N2706      H2710   1.045       .  S
C2711      C2712   1.411       .  A
C2711      C2716   1.416       .  A
C2711      H2718   1.085       .  S
C2712      C2713   1.424       .  A
C2713      C2714   1.435       .  A
C2713      N2720   1.430       .  S
C2714      C2715   1.421       .  A
C2714      H2719   1.083       .  S
C2715      C2716   1.431       .  A
C2716      N2717   1.435       .  S
N2717      H2721   1.045       .  S
N2717      H2722   1.036       .  S
N2720      H2723   1.045       .  S
N2720      H2724   1.045       .  S
C2725      C2726   1.401       .  A
C2725      C2730   1.407       .  A
C2725      H2732   1.086       .  S
C2726      C2727   1.425       .  A
C2727      C2728   1.430       .  A
C2727      N2734   1.435       .  S
C2728      C2729   1.416       .  A
C2728      H2733   1.083       .  S
C2729      C2730   1.435       .  A
C2730      N2731   1.433       .  S
N2731      H2735   1.043       .  S
N2731      H2736   1.032       .  S
N2734      H2737   1.043       .  S
N2734      H2738   1.046       .  S
C2739      C2740   1.418       .  A
C2739      C2744   1.403       .  A
C2739      H2746   1.084       .  S
C2740      C2741   1.424       .  A
C2741      C2742   1.433       .  A
C2741      N2748   1.434       .  S
C2742      C2743   1.419       .  A
C2742      H2747   1.082       .  S
C2743      C2744   1.406       .  A
C2744      N2745   1.431       .  S
N2745      H2749   1.045       .  S
N2745      H2750   1.046       .  S
N2748      H2751   1.041       .  S
N2748      H2752   1.046       .  S
C2753      C2754   1.403       .  A
C2753      C2758   1.398       .  A
C2753      H2760   1.084       .  S
C2754      C2755   1.419       .  A
C2755      C2756   1.394       .  A
C2755      N2762   1.431       .  S
C2756      C2757   1.389       .  A
C2756      H2761   1.080       .  S
C2757      C2758   1.408       .  A
C2758      N2759   1.435       .  S
N2759      H2763   1.046       .  S
N2759      H2764   1.046       .  S
N2762      H2765   1.038       .  S
N2762      H2766   1.045       .  S
C2767      C2768   1.410       .  A
C2767      C2772   1.411       .  A
C2767      H2774   1.084       .  S
C2768      C2769   1.421       .  A
C2769      C2770   1.445       .  A
C2769      N2776   1.436       .  S
C2770      C2771   1.425       .  A
C2770      H2775   1.083       .  S
C2771      C2772   1.430       .  A
C2772      N2773   1.437       .  S
N2773      H2777   1.046       .  S
N2773      H2778   1.036       .  S
N2776      H2779   1.045       .  S
N2776      H2780   1.045       .  S
C2781      C2782   1.416       .  A
C2781      C2786   1.442       .  A
C2781      H2788   1.083       .  S
C2782      C2783   1.441       .  A
C2783      C2784   1.410       .  A
C2783      N2790   1.436       .  S
C2784      C2785   1.393       .  A
C2784      H2789   1.082       .  S
C2785      C2786   1.430       .  A
C2786      N2787   1.430       .  S
N2787      H2791   1.044       .  S
N2787      H2792   1.045       .  S
N2790      H2793   1.046       .  S
N2790      H2794   1.044       .  S
C2795      C2796   1.402       .  A
C2795      C2800   1.422       .  A
C2795      H2802   1.083       .  S
C2796      C2797   1.421       .  A
C2797      C2798   1.417       .  A
C2797      N2804   1.438       .  S
C2798      C2799   1.406       .  A
C2798      H2803   1.084       .  S
C2799      C2800   1.427       .  A
C2800      N2801   1.426       .  S
N2801      H2805   1.046       .  S
N2801      H2806   1.046       .  S
N2804      H2807   1.045       .  S
N2804      H2808   1.046       .  S
C2809      C2810   1.406       .  A
C2809      C2814   1.433       .  A
C2809      H2816   1.083       .  S
C2810      C2811   1.421       .  A
C2811      C2812   1.408       .  A
C2811      N2818   1.436       .  S
C2812      C2813   1.406       .  A
C2812      H2817   1.077       .  S
C2813      C2814   1.432       .  A
C2814      N2815   1.429       .  S
N2815      H2819   1.045       .  S
N2815      H2820   1.044       .  S
N2818      H2821   1.046       .  S
N2818      H2822   1.045       .  S
C2823      C2824   1.400       .  A
C2823      C2828   1.399       .  A
C2823      H2830   1.077       .  S
C2824      C2825   1.407       .  A
C2825      C2826   1.365       .  A
C2825      N2832   1.437       .  S
C2826      C2827   1.396       .  A
C2826      H2831   1.079       .  S
C2827      C2828   1.407       .  A
C2828      N2829   1.435       .  S
N2829      H2833   1.042       .  S
N2829      H2834   1.045       .  S
N2832      H2835   1.046       .  S
N2832      H2836   1.046       .  S
C2837      C2838   1.428       .  A
C2837      C2842   1.445       .  A
C2837      H2844   1.083       .  S
C2838      C2839   1.424       .  A
C2839      C2840   1.419       .  A
C2839      N2846   1.429       .  S
C2840      C2841   1.413       .  A
C2840      H2845   1.085       .  S
C2841      C2842   1.430       .  A
C2842      N2843   1.435       .  S
N2843      H2847   1.045       .  S
N2843      H2848   1.044       .  S
N2846      H2849   1.044       .  S
N2846      H2850   1.046       .  S
C2851      C2852   1.416       .  A
C2851      C2856   1.408       .  A
C2851      H2858   1.085       .  S
C2852      C2853   1.424       .  A
C2853      C2854   1.430       .  A
C2853      N2860   1.435       .  S
C2854      C2855   1.419       .  A
C2854      H2859   1.083       .  S
C2855      C2856   1.411       .  A
C2856      N2857   1.434       .  S
N2857      H2861   1.044       .  S
N2857      H2862   1.043       .  S
N2860      H2863   1.042       .  S
N2860      H2864   1.046       .  S
C2865      C2866   1.414       .  A
C2865      C2870   1.409       .  A
C2865      H2872   1.084       .  S
C2866      C2867   1.424       .  A
C2867      C2868   1.435       .  A
C2867      N2874   1.435       .  S
C2868      C2869   1.422       .  A
C2868      H2873   1.083       .  S
C2869      C2870   1.418       .  A
C2870      N2871   1.437       .  S
N2871      H2875   1.045       .  S
N2871      H2876   1.041       .  S
N2874      H2877   1.042       .  S
N2874      H2878   1.045       .  S
C2879      C2880   1.410       .  A
C2879      C2884   1.406       .  A
C2879      H2886   1.085       .  S
C2880      C2881   1.421       .  A
C2881      C2882   1.424       .  A
C2881      N2888   1.436       .  S
C2882      C2883   1.414       .  A
C2882      H2887   1.083       .  S
C2883      C2884   1.421       .  A
C2884      N2885   1.438       .  S
N2885      H2889   1.045       .  S
N2885      H2890   1.041       .  S
N2888      H2891   1.043       .  S
N2888      H2892   1.045       .  S
C2893      C2894   1.399       .  A
C2893      C2898   1.387       .  A
C2893      H2900   1.084       .  S
C2894      C2895   1.406       .  A
C2895      C2896   1.398       .  A
C2895      N2902   1.434       .  S
C2896      C2897   1.403       .  A
C2896      H2901   1.084       .  S
C2897      C2898   1.399       .  A
C2898      N2899   1.425       .  S
N2899      H2903   1.035       .  S
N2899      H2904   1.046       .  S
N2902      H2905   1.041       .  S
N2902      H2906   1.046       .  S
C2907      C2908   1.402       .  A
C2907      C2912   1.395       .  A
C2907      H2914   1.076       .  S
C2908      C2909   1.399       .  A
C2909      C2910   1.390       .  A
C2909      N2916   1.422       .  S
C2910      C2911   1.394       .  A
C2910      H2915   1.079       .  S
C2911      C2912   1.401       .  A
C2912      N2913   1.430       .  S
N2913      H2917   1.045       .  S
N2913      H2918   1.038       .  S
N2916      H2919   1.046       .  S
N2916      H2920   1.045       .  S
C2921      C2922   1.405       .  A
C2921      C2926   1.376       .  A
C2921      H2928   1.081       .  S
C2922      C2923   1.407       .  A
C2923      C2924   1.403       .  A
C2923      N2930   1.433       .  S
C2924      C2925   1.403       .  A
C2924      H2929   1.082       .  S
C2925      C2926   1.399       .  A
C2926      N2927   1.437       .  S
N2927      H2931   1.040       .  S
N2927      H2932   1.046       .  S
N2930      H2933   1.040       .  S
N2930      H2934   1.045       .  S
C2935      C2936   1.411       .  A
C2935      C2940   1.414       .  A
C2935      H2942   1.084       .  S
C2936      C2937   1.416       .  A
C2937      C2938   1.412       .  A
C2937      N2944   1.438       .  S
C2938      C2939   1.412       .  A
C2938      H2943   1.083       .  S
C2939      C2940   1.418       .  A
C2940      N2941   1.438       .  S
N2941      H2945   1.045       .  S
N2941      H2946   1.043       .  S
N2944      H2947   1.044       .  S
N2944      H2948   1.046       .  S
C2949      C2950   1.412       .  A
C2949      C2954   1.439       .  A
C2949      H2956   1.083       .  S
C2950      C2951   1.435       .  A
C2951      C2952   1.399       .  A
C2951      N2958   1.435       .  S
C2952      C2953   1.399       .  A
C2952      H2957   1.083       .  S
C2953      C2954   1.434       .  A
C2954      N2955   1.433       .  S
N2955      H2959   1.045       .  S
N2955      H2960   1.043       .  S
N2958      H2961   1.046       .  S
N2958      H2962   1.044       .  S
C2963      C2964   1.414       .  A
C2963      C2968   1.426       .  A
C2963      H2970   1.082       .  S
C2964      C2965   1.423       .  A
C2965      C2966   1.411       .  A
C2965      N2972   1.437       .  S
C2966      C2967   1.409       .  A
C2966      H2971   1.085       .  S
C2967      C2968   1.421       .  A
C2968      N2969   1.436       .  S
N2969      H2973   1.045       .  S
N2969      H2974   1.044       .  S
N2972      H2975   1.039       .  S
N2972      H2976   1.045       .  S
C2977      C2978   1.416       .  A
C2977      C2982   1.433       .  A
C2977      H2984   1.083       .  S
C2978      C2979   1.425       .  A
C2979      C2980   1.408       .  A
C2979      N2986   1.441       .  S
C2980      C2981   1.407       .  A
C2980      H2985   1.081       .  S
C2981      C2982   1.423       .  A
C2982      N2983   1.429       .  S
N2983      H2987   1.045       .  S
N2983      H2988   1.046       .  S
N2986      H2989   1.045       .  S
N2986      H2990   1.044       .  S
C2991      C2992   1.405       .  A
C2991      C2996   1.408       .  A
C2991      H2998   1.084       .  S
C2992      C2993   1.422       .  A
C2993      C2994   1.377       .  A
C2993      N3000   1.436       .  S
C2994      C2995   1.388       .  A
C2994      H2999   1.077       .  S
C2995      C2996   1.407       .  A
C2996      N2997   1.435       .  S
N2997      H3001   1.046       .  S
N2997      H3002   1.045       .  S
N3000      H3003   1.042       .  S
N3000      H3004   1.044       .  S
C3005      C3006   1.398       .  A
C3005      C3010   1.380       .  A
C3005      H3012   1.083       .  S
C3006      C3007   1.401       .  A
C3007      C3008   1.395       .  A
C3007      N3014   1.437       .  S
C3008      C3009   1.399       .  A
C3008      H3013   1.083       .  S
C3009      C3010   1.388       .  A
C3010      N3011   1.432       .  S
N3011      H3015   1.045       .  S
N3011      H3016   1.045       .  S
N3014      H3017   1.045       .  S
N3014      H3018   1.046       .  S
C3019      C3020   1.391       .  A
C3019      C3024   1.384       .  A
C3019      H3026   1.085       .  S
C3020      C3021   1.417       .  A
C3021      C3022   1.398       .  A
C3021      N3028   1.439       .  S
C3022      C3023   1.397       .  A
C3022      H3027   1.084       .  S
C3023      C3024   1.406       .  A
C3024      N3025   1.434       .  S
N3025      H3029   1.046       .  S
N3025      H3030   1.046       .  S
N3028      H3031   1.043       .  S
N3028      H3032   1.045       .  S
C3033      C3034   1.413       .  A
C3033      C3038   1.411       .  A
C3033      H3040   1.084       .  S
C3034      C3035   1.419       .  A
C3035      C3036   1.421       .  A
C3035      N3042   1.437       .  S
C3036      C3037   1.416       .  A
C3036      H3041   1.077       .  S
C3037      C3038   1.409       .  A
C3038      N3039   1.437       .  S
N3039      H3043   1.045       .  S
N3039      H3044   1.045       .  S
N3042      H3045   1.042       .  S
N3042      H3046   1.046       .  S
C3047      C3048   1.414       .  A
C3047      C3052   1.432       .  A
C3047      H3054   1.083       .  S
C3048      C3049   1.420       .  A
C3049      C3050   1.406       .  A
C3049      N3056   1.438       .  S
C3050      C3051   1.406       .  A
C3050      H3055   1.078       .  S
C3051      C3052   1.420       .  A
C3052      N3053   1.435       .  S
N3053      H3057   1.045       .  S
N3053      H3058   1.045       .  S
N3056      H3059   1.044       .  S
N3056      H3060   1.046       .  S
C3061      C3062   1.411       .  A
C3061      C3066   1.416       .  A
C3061      H3068   1.085       .  S
C3062      C3063   1.420       .  A
C3063      C3064   1.418       .  A
C3063      N3070   1.436       .  S
C3064      C3065   1.409       .  A
C3064      H3069   1.083       .  S
C3065      C3066   1.426       .  A
C3066      N3067   1.437       .  S
N3067      H3071   1.045       .  S
N3067      H3072   1.041       .  S
N3070      H3073   1.045       .  S
N3070      H3074   1.046       .  S
C3075      C3076   1.411       .  A
C3075      C3080   1.413       .  A
C3075      H3082   1.085       .  S
C3076      C3077   1.422       .  A
C3077      C3078   1.430       .  A
C3077      N3084   1.435       .  S
C3078      C3079   1.418       .  A
C3078      H3083   1.083       .  S
C3079      C3080   1.418       .  A
C3080      N3081   1.435       .  S
N3081      H3085   1.045       .  S
N3081      H3086   1.036       .  S
N3084      H3087   1.044       .  S
N3084      H3088   1.045       .  S
C3089      C3090   1.411       .  A
C3089      C3094   1.396       .  A
C3089      H3096   1.069       .  S
C3090      C3091   1.403       .  A
C3091      C3092   1.406       .  A
C3091      N3098   1.438       .  S
C3092      C3093   1.407       .  A
C3092      H3097   1.071       .  S
C3093      C3094   1.394       .  A
C3094      N3095   1.434       .  S
N3095      H3099   1.045       .  S
N3095      H3100   1.046       .  S
N3098      H3101   1.045       .  S
N3098      H3102   1.041       .  S
C3103      C3104   1.403       .  A
C3103      C3108   1.413       .  A
C3103      H3110   1.080       .  S
C3104      C3105   1.399       .  A
C3105      C3106   1.401       .  A
C3105      N3112   1.428       .  S
C3106      C3107   1.423       .  A
C3106      H3111   1.084       .  S
C3107      C3108   1.431       .  A
C3108      N3109   1.437       .  S
N3109      H3113   1.046       .  S
N3109      H3114   1.046       .  S
N3112      H3115   1.046       .  S
N3112      H3116   1.042       .  S
C3117      C3118   1.396       .  A
C3117      C3122   1.387       .  A
C3117      H3124   1.081       .  S
C3118      C3119   1.403       .  A
C3119      C3120   1.392       .  A
C3119      N3126   1.432       .  S
C3120      C3121   1.397       .  A
C3120      H3125   1.085       .  S
C3121      C3122   1.407       .  A
C3122      N3123   1.438       .  S
N3123      H3127   1.045       .  S
N3123      H3128   1.044       .  S
N3126      H3129   1.045       .  S
N3126      H3130   1.046       .  S
C3131      C3132   1.403       .  A
C3131      C3136   1.381       .  A
C3131      H3138   1.081       .  S
C3132      C3133   1.404       .  A
C3133      C3134   1.387       .  A
C3133      N3140   1.439       .  S
C3134      C3135   1.401       .  A
C3134      H3139   1.085       .  S
C3135      C3136   1.394       .  A
C3136      N3137   1.439       .  S
N3137      H3141   1.046       .  S
N3137      H3142   1.045       .  S
N3140      H3143   1.046       .  S
N3140      H3144   1.046       .  S
