geometry optimzed in LAMMPS
_audit_creation_date              2020-11-30 
_audit_creation_method            'lammps2cif' 
_symmetry_space_group_name_H-M    'P1' 
_symmetry_Int_Tables_number       1 
_symmetry_cell_setting            triclinic 
loop_ 
_symmetry_equiv_pos_as_xyz 
  x,y,z 
_cell_length_a                    40.49450024683704 
_cell_length_b                    46.56923715227795 
_cell_length_c                    43.85417386561702 
_cell_angle_alpha                 89.8623208622756 
_cell_angle_beta                  95.78369260169335 
_cell_angle_gamma                 87.74258034149709 
loop_ 
_atom_site_label 
_atom_site_type_symbol 
_atom_site_fract_x 
_atom_site_fract_y 
_atom_site_fract_z 
_atom_site_charge 
C1          C  0.38946518  0.36194862  0.36630776    -0.02890
C2          C  0.10120997  0.15704518  0.09508169    -0.02890
C3          C  0.06054063  0.41896506  0.42557686     0.42050
N4          N  0.02732323  0.45625607  0.42949895     0.00940
C5          C  0.03618165  0.04286139  0.05550216    -0.06930
H6          H  0.46624938  0.45041531  0.06832958     0.06430
C7          C  0.38076608  0.50655945  0.49311091    -0.07290
Co8        Co  0.04570461  0.48024039  0.49069703     0.74180
N9          N  0.49569577  0.46680229  0.03439574    -0.26460
Co10       Co  0.47828139  0.50933248  0.02682481     0.74070
C11         C  0.37809177  0.49524820  0.52415222     0.42150
N12         N  0.43232075  0.49561770  0.42707829     0.00560
N13         N  0.42981088  0.49747366  0.01595419     0.00660
N14         N  0.07875378  0.02558893  0.03011354    -0.47310
H15         H  0.07710285  0.41915372  0.47663017     0.06420
N16         N  0.02132985  0.45581555  0.02130544     0.00950
N17         N  0.46046619  0.05233966  0.01792949     0.00690
C18         C  0.43567967  0.09379269  0.02229390     0.42290
N19         N  0.45761693  0.48366178  0.41403201    -0.25920
C20         C  0.10316060  0.00545167  0.45630880    -0.06840
N21         N  0.04056547  0.43901975  0.40931782    -0.47030
N22         N  0.45261735  0.07192873  0.03830403    -0.47250
C23         C  0.10653282  0.01531071  0.42486377     0.42070
N24         N  0.05135281  0.01166607  0.02299195     0.00940
N25         N  0.48751843  0.04100344  0.41181745    -0.25940
N26         N  0.03970681  0.44958489  0.45768750    -0.26430
N27         N  0.46214781  0.05204532  0.42517944     0.00580
H28         H  0.51750737  0.05840033  0.37854679     0.06470
H29         H  0.41617092  0.09465906  0.47156491     0.06500
N30         N  0.02603383  0.02189138  0.03692675    -0.26480
N31         N  0.41365796  0.50701091  0.49008768    -0.26100
N32         N  0.05444309  0.01179887  0.43168599     0.00940
C33         C  0.00904693  0.42246241  0.05175261     0.42340
C34         C  0.44970747  0.45702019  0.40585089    -0.07350
N35         N  0.44766611  0.05955470  0.48996673    -0.26090
H36         H  0.36133262  0.51610288  0.47710451     0.06490
N37         N  0.03024856  0.42936519  0.03121699    -0.47320
H38         H  0.46677605  0.44082858  0.39809996     0.06470
C39         C  0.47465536  0.08605452  0.39552372     0.42170
C40         C  0.05949910  0.42606239  0.45758106    -0.06840
Co41       Co  0.00611108  0.99849761  0.42071229     0.73820
N42         N  0.40804432  0.47789737  0.42951603    -0.47030
C43         C  0.07083804  0.04504899  0.05091418     0.42440
N44         N  0.07507782  0.01797427  0.41117666    -0.47020
Co45       Co  0.43882240  0.02880201  0.45718297     0.73890
C46         C  0.43274082  0.08548155  0.49026622    -0.07350
C47         C  0.48600639  0.44720581  0.05367980    -0.06910
N48         N  0.07023407  0.00377770  0.45841372    -0.26440
N49         N  0.40972077  0.49074110  0.03671226    -0.47200
H50         H  0.52054483  0.05648497  0.06848691     0.06450
C51         C  0.49736194  0.06109490  0.39283924    -0.07330
Cl52       Cl  0.49233177  0.00425480  0.47381820    -0.50330
C53         C  0.41755419  0.45308005  0.41730768     0.42200
H54         H  0.12243010  0.99654538  0.47290604     0.06410
N55         N  0.45358445  0.07875651  0.41595875    -0.47040
C56         C  0.35431025  0.29242334  0.03400129     0.42050
N57         N  0.33137404  0.27829443  0.48999993     0.00940
C58         C  0.16802774  0.32171207  0.44385879    -0.06930
H59         H  0.19781311  0.30716538  0.06022321     0.06430
C60         C  0.22802059  0.20603733  0.04110609    -0.07270
Co61       Co  0.26938611  0.31552383  0.47143733     0.74180
N62         N  0.22518593  0.30806008  0.02056880    -0.26460
Co63       Co  0.20387459  0.27860065  0.48916541     0.74070
C64         C  0.20416509  0.22069856  0.05881679     0.42150
N65         N  0.29291969  0.20276392  0.49810723     0.00560
N66         N  0.21232083  0.24721347  0.02133433     0.00660
N67         N  0.20983721  0.34958521  0.43309091    -0.47310
H68         H  0.32014865  0.33241995  0.03304060     0.06420
N69         N  0.25035908  0.32295819  0.01358486     0.00950
N70         N  0.18377920  0.24958233  0.45705965     0.00690
C71         C  0.15831923  0.23401119  0.41521384     0.42290
N72         N  0.31833285  0.21689395  0.49040225    -0.25920
C73         C  0.27780239  0.31796612  0.40238476    -0.06840
N74         N  0.35394953  0.27102838  0.01318480    -0.47030
N75         N  0.15949127  0.25597751  0.43520744    -0.47250
C76         C  0.29143691  0.29909134  0.37962929     0.42070
N77         N  0.22121734  0.32658557  0.44979393     0.00940
N78         N  0.28957123  0.21801732  0.42610618    -0.25940
N79         N  0.31567857  0.30305518  0.49487373    -0.26430
N80         N  0.26419254  0.20460126  0.43501545     0.00580
H81         H  0.31603345  0.21232456  0.38563742     0.06470
H82         H  0.19230270  0.19365357  0.41601484     0.06500
N83         N  0.19687625  0.31075925  0.45685947    -0.26480
N84         N  0.22892243  0.22307815  0.51692634    -0.26100
N85         N  0.30200149  0.28046521  0.42450146     0.00940
C86         C  0.24061029  0.33837309  0.05831613     0.42340
C87         C  0.34637593  0.20472369  0.50420028    -0.07350
N88         N  0.19939005  0.22482511  0.45233811    -0.26090
H89         H  0.23688476  0.18379353  0.04248169     0.06490
N90         N  0.26019153  0.34137700  0.03534892    -0.47320
H91         H  0.37122907  0.21054616  0.50037599     0.06470
C92         C  0.27146208  0.18377747  0.39225762     0.42170
C93         C  0.32924344  0.31374245  0.02153523    -0.06840
Co94       Co  0.31159433  0.24891509  0.45726091     0.73820
N95         N  0.30225978  0.18024576  0.51598527    -0.47030
C96         C  0.17624285  0.34732342  0.42784718     0.42440
N97         N  0.30606779  0.27640159  0.39536783    -0.47020
Co98       Co  0.24579131  0.21323970  0.47601696     0.73890
C99         C  0.18423605  0.21304507  0.42696419    -0.07350
C100        C  0.21731155  0.31605379  0.04847333    -0.06910
N101        N  0.28578256  0.30488878  0.42938184    -0.26440
N102        N  0.19794342  0.24701905  0.04674012    -0.47200
H103        H  0.14386771  0.31426183  0.44789084     0.06450
C104        C  0.29604741  0.20649138  0.39872813    -0.07330
Cl105      Cl  0.25767805  0.26411736  0.47335217    -0.50330
C106        C  0.33581379  0.18038162  0.02127076     0.42200
H107        H  0.26332338  0.33791863  0.39890613     0.06410
N108        N  0.25315404  0.18449462  0.41602875    -0.47040
C109        C  0.09707118  0.23767463  0.29063310     0.42050
N110        N  0.05763480  0.22666273  0.25680101     0.00940
C111        C  0.48061373  0.32929217  0.15542289    -0.06930
H112        H  0.00943053  0.36973474  0.24770669     0.06430
C113        C  0.45241079  0.28118336  0.30618500    -0.07290
Co114      Co  0.04450956  0.27283144  0.20778469     0.74180
N115        N  0.02128909  0.32565848  0.23761302    -0.26460
Co116      Co  0.47489101  0.30926716  0.22187370     0.74070
C117        C  0.47137902  0.30614161  0.31475567     0.42150
N118        N  0.46703937  0.21991223  0.28616899     0.00560
N119        N  0.46204906  0.30501317  0.26589195     0.00660
N120        N  0.02857742  0.30620002  0.14620627    -0.47310
H121        H  0.10750169  0.27840299  0.26401997     0.06420
N122        N  0.04898405  0.31198340  0.23158734     0.00950
N123        N  0.42998052  0.29375408  0.20312529     0.00690
C124        C  0.39374334  0.28420211  0.16519390     0.42290
N125        N  0.49662720  0.20861660  0.28233194    -0.25920
C126        C  0.02883583  0.23219012  0.15295447    -0.06840
N127        N  0.07314348  0.21891310  0.28369835    -0.47030
N128        N  0.41639875  0.30292685  0.17597548    -0.47250
C129        C  0.01237805  0.20476861  0.14850783     0.42070
N130        N  0.01793022  0.29705050  0.17213856     0.00940
N131        N  0.46737626  0.19270622  0.22300298    -0.25940
N132        N  0.06946091  0.25009982  0.24551989    -0.26430
N133        N  0.43931902  0.20758257  0.22467242     0.00580
H134        H  0.47835760  0.14751482  0.21711379     0.06470
H135        H  0.38299987  0.24110368  0.18749073     0.06500
N136        N  0.49049945  0.31098262  0.17830943    -0.26480
N137        N  0.44879311  0.28157218  0.27557150    -0.26100
N138        N  0.02525481  0.21146125  0.19620176     0.00940
C139        C  0.06358235  0.35585253  0.24111655     0.42340
C140        C  0.00673816  0.19064639  0.30551343    -0.07350
N141        N  0.41819400  0.26918288  0.21146293    -0.26090
H142        H  0.44685945  0.26354718  0.32057517     0.06490
N143        N  0.07453890  0.32926932  0.23291366    -0.47320
H144        H  0.02779079  0.17556588  0.30596198     0.06470
C145        C  0.42409700  0.16447103  0.21491144     0.42170
C146        C  0.09473780  0.25855096  0.26542856    -0.06840
Co147      Co  0.01303054  0.20970682  0.23958508     0.73820
N148        N  0.45520472  0.20893556  0.31081699    -0.47030
C149        C  0.00563348  0.32608182  0.13383323     0.42440
N150        N  0.01190670  0.19315842  0.17622939    -0.47020
Co151      Co  0.44168484  0.24515279  0.24944381     0.73890
C152        C  0.39494338  0.26148625  0.18885278    -0.07350
C153        C  0.02807980  0.35305733  0.24468943    -0.06910
N154        N  0.03533978  0.23484817  0.18340187    -0.26440
N155        N  0.47548331  0.32037857  0.28876260    -0.47200
H156        H  0.46086879  0.34558530  0.15578718     0.06450
C157        C  0.46031004  0.16531363  0.21638620    -0.07330
Cl158      Cl  0.49365396  0.25937350  0.22985385    -0.50330
C159        C  0.47953832  0.19098539  0.32482278     0.42200
H160        H  0.03155442  0.24874083  0.13618343     0.06410
N161        N  0.41305416  0.19148530  0.22057290    -0.47040
C162        C  0.19933450  0.49572555  0.33512357     0.42050
N163        N  0.23362506  0.50533606  0.30178644     0.00940
C164        C  0.19336595  0.06343736  0.15912430    -0.06930
H165        H  0.16407185  0.44556543  0.17578579     0.06430
C166        C  0.28172643  0.42931874  0.18070157    -0.07290
Co167      Co  0.19475399  0.03053222  0.24648590     0.74180
N168        N  0.17835914  0.48412439  0.20035447    -0.26460
Co169      Co  0.21698947  0.50039374  0.17704752     0.74070
C170        C  0.25387801  0.41752545  0.16081707     0.42150
N171        N  0.30589595  0.46921938  0.25095194     0.00560
N172        N  0.23985173  0.45970927  0.17675519     0.00660
N173        N  0.17868359  0.08007052  0.20448419    -0.47310
H174        H  0.15432516  0.50645310  0.30079674     0.06420
N175        N  0.16986576  0.49523875  0.22630743     0.00950
N176        N  0.25739842  0.01448798  0.15378461     0.00690
C177        C  0.29138605  0.01882724  0.11867643     0.42290
N178        N  0.29721050  0.48020523  0.27690386    -0.25920
C179        C  0.21258611  0.09274741  0.27505301    -0.06840
N180        N  0.23212417  0.49884036  0.33134930    -0.47030
N181        N  0.25868738  0.01775649  0.12363175    -0.47250
C182        C  0.24290896  0.10472152  0.29121759     0.42070
N183        N  0.18791021  0.05264433  0.20604649     0.00940
N184        N  0.31270391  0.03619885  0.25592283    -0.25940
N185        N  0.20359481  0.50863209  0.28723304    -0.26430
N186        N  0.32074047  0.02571031  0.22959791     0.00580
H187        H  0.32932717  0.07223194  0.28299612     0.06470
H188        H  0.33631452  0.00916067  0.15341332     0.06500
N189        N  0.19669344  0.04217794  0.17992659    -0.26480
N190        N  0.27078564  0.45558658  0.18903492    -0.26100
N191        N  0.25230567  0.06063019  0.27878551     0.00940
C192        C  0.14088588  0.45719596  0.22009612     0.42340
C193        C  0.31325434  0.46557215  0.30028734    -0.07350
N194        N  0.28746994  0.01142406  0.16825019    -0.26090
H195        H  0.30675890  0.42072996  0.18619989     0.06490
N196        N  0.14789306  0.47962612  0.23895060    -0.47320
H197        H  0.31336067  0.47133311  0.32415947     0.06470
C198        C  0.35132377  0.06238090  0.23747949     0.42170
C199        C  0.18081010  0.50248336  0.30588157    -0.06840
Co200      Co  0.27430587  0.02018697  0.27887510     0.73820
N201        N  0.32828303  0.44794135  0.25527297    -0.47030
C202        C  0.18216772  0.08856432  0.17590632     0.42440
N203        N  0.26575627  0.08293356  0.29304248    -0.47020
Co204      Co  0.29653549  0.49040985  0.20979850     0.73890
C205        C  0.31009622  0.01460808  0.14849306    -0.07350
C206        C  0.16125979  0.46011947  0.19460194    -0.06910
N207        N  0.22115896  0.06540422  0.26766260    -0.26440
N208        N  0.22909681  0.43789432  0.15978570    -0.47200
H209        H  0.19919020  0.06164706  0.13566559     0.06450
C210        C  0.33103710  0.05901331  0.26296712    -0.07330
Cl211      Cl  0.24564655  0.51019625  0.22807013    -0.50330
C212        C  0.33441128  0.44503647  0.28569274     0.42200
H213        H  0.18802604  0.10279115  0.27069120     0.06410
N214        N  0.34339987  0.04090993  0.21764785    -0.47040
C215        C  0.41042876  0.11346968  0.20349839    -0.09560
C216        C  0.40525775  0.13852871  0.22043797     0.06630
C217        C  0.38325829  0.13784218  0.24344850    -0.03330
C218        C  0.36643651  0.11291137  0.24838952    -0.07780
C219        C  0.37089266  0.08789477  0.23114663     0.05750
C220        C  0.39346291  0.08834894  0.20849304    -0.02800
Br221      Br  0.40330853  0.05540999  0.18426336    -0.02500
H222        H  0.42772198  0.11345261  0.18618718     0.09660
H223        H  0.34960006  0.11341726  0.26601671     0.07680
Br224      Br  0.37637717  0.16927419  0.27076613    -0.02930
C225        C  0.08675914  0.43245568  0.21838224    -0.09560
C226        C  0.12100002  0.43199247  0.22732068     0.06630
C227        C  0.13584478  0.40689155  0.24170684    -0.03330
C228        C  0.11673765  0.38276660  0.24623085    -0.07780
C229        C  0.08230966  0.38293862  0.23711531     0.05750
C230        C  0.06745021  0.40855415  0.22307342    -0.02800
Br231      Br  0.02162697  0.41241325  0.20718379    -0.02500
H232        H  0.07497575  0.45143524  0.20700974     0.09660
H233        H  0.12894825  0.36368831  0.25699895     0.07680
Br234      Br  0.18230592  0.40474721  0.25560800    -0.02930
C235        C  0.22128814  0.38324295  0.12788669    -0.09560
C236        C  0.25279021  0.39325305  0.13834324     0.06630
C237        C  0.28045651  0.38260019  0.12380339    -0.03330
C238        C  0.27574601  0.36393348  0.09871770    -0.07780
C239        C  0.24400262  0.35527116  0.08732178     0.05750
C240        C  0.21660763  0.36469471  0.10277013    -0.02800
Br241      Br  0.17156418  0.35616999  0.08905895    -0.02500
H242        H  0.19963680  0.39103425  0.13849470     0.09660
H243        H  0.29715222  0.35674524  0.08739653     0.07680
Br244      Br  0.32507936  0.39402253  0.13440622    -0.02930
C245        C  0.23477120  0.12267875  0.34286044    -0.09560
C246        C  0.24582238  0.12803425  0.31433662     0.06630
C247        C  0.26621303  0.15163253  0.31141920    -0.03330
C248        C  0.27466033  0.16962272  0.33671832    -0.07780
C249        C  0.26385218  0.16401560  0.36560007     0.05750
C250        C  0.24387436  0.13977809  0.36831385    -0.02800
Br251      Br  0.23029206  0.12614065  0.40641756    -0.02500
H252        H  0.22059882  0.10378505  0.34588051     0.09660
H253        H  0.28982136  0.18788486  0.33379661     0.07680
Br254      Br  0.28337420  0.15964261  0.27328654    -0.02930
C255        C  0.14742121  0.23594487  0.32779855    -0.09560
C256        C  0.11309841  0.24082341  0.32209577     0.06630
C257        C  0.09414497  0.24589258  0.34698417    -0.03330
C258        C  0.10936968  0.24393500  0.37712830    -0.07780
C259        C  0.14346763  0.23713735  0.38298853     0.05750
C260        C  0.16276929  0.23447432  0.35787161    -0.02800
Br261      Br  0.21028386  0.23116671  0.36264225    -0.02500
H262        H  0.16229897  0.23280465  0.30878640     0.09660
H263        H  0.09443160  0.24732168  0.39605453     0.07680
Br264      Br  0.04762924  0.25645115  0.34086476    -0.02930
C265        C  0.34043383  0.28500417  0.08804586    -0.09560
C266        C  0.36462299  0.28783810  0.06735829     0.06630
C267        C  0.39824992  0.28713123  0.07904730    -0.03330
C268        C  0.40722871  0.28481264  0.11080150    -0.07780
C269        C  0.38310523  0.28245827  0.13163829     0.05750
C270        C  0.34945341  0.28203826  0.11984781    -0.02800
Br271      Br  0.31498618  0.27935615  0.14650025    -0.02500
H272        H  0.31437718  0.28542344  0.07946371     0.09660
H273        H  0.43325678  0.28537811  0.11931876     0.07680
Br274      Br  0.43247845  0.29102300  0.05239311    -0.02930
C275        C  0.39082436  0.16125536  0.04383833    -0.09560
C276        C  0.35831115  0.15554034  0.03146580     0.06630
C277        C  0.35076640  0.12694077  0.02364809    -0.03330
C278        C  0.37625670  0.10562356  0.02552149    -0.07780
C279        C  0.40945299  0.11235892  0.03399543     0.05750
C280        C  0.41635632  0.13998111  0.04483406    -0.02800
Br281      Br  0.46095989  0.15050870  0.05681891    -0.02500
H282        H  0.39703895  0.18299646  0.05023141     0.09660
H283        H  0.37071366  0.08436367  0.01690191     0.07680
Br284      Br  0.30813166  0.11623340  0.50486042    -0.02930
C285        C  0.12200139  0.41590116  0.42382524    -0.09560
C286        C  0.09073049  0.40438420  0.41516687     0.06630
C287        C  0.08983193  0.37590409  0.40491381    -0.03330
C288        C  0.11929545  0.35918640  0.40463730    -0.07780
C289        C  0.15014639  0.36949464  0.41669125     0.05750
C290        C  0.15155530  0.39874582  0.42489757    -0.02800
Br291      Br  0.19181676  0.41530256  0.44215244    -0.02500
H292        H  0.12313882  0.43751819  0.43284447     0.09660
H293        H  0.11750084  0.33676909  0.39833312     0.07680
Br294      Br  0.04882684  0.35691079  0.39756907    -0.02930
C295        C  0.18592513  0.01963078  0.38422191    -0.09560
C296        C  0.18263281  0.49618208  0.36402400     0.06630
C297        C  0.15627718  0.47766049  0.36679089    -0.03330
C298        C  0.13281993  0.98364738  0.38761281    -0.07780
C299        C  0.13498286  0.00781289  0.40666546     0.05750
C300        C  0.16244411  0.02542833  0.40547225    -0.02800
Br301      Br  0.16689139  0.05913790  0.43028287    -0.02500
H302        H  0.20528196  0.03466907  0.38195611     0.09660
H303        H  0.11187118  0.46993481  0.38798313     0.07680
Br304      Br  0.14993046  0.44470630  0.34092486    -0.02930
C305        C  0.32420954  0.48412536  0.08919503    -0.09560
C306        C  0.30611944  0.01053138  0.08977296     0.06630
C307        C  0.30831133  0.03022235  0.06565687    -0.03330
C308        C  0.32983889  0.52416983  0.04278318    -0.07780
C309        C  0.34983615  0.49860321  0.04367812     0.05750
C310        C  0.34578565  0.47812529  0.06665845    -0.02800
Br311      Br  0.37015355  0.44182223  0.06893048    -0.02500
H312        H  0.32288090  0.46856522  0.10740413     0.09660
H313        H  0.33256037  0.54034068  0.02552592     0.07680
Br314      Br  0.28480845  0.06673614  0.06506398    -0.02930
C315        C  0.01659794  0.36930401  0.06183888    -0.09560
C316        C  0.01354197  0.39749710  0.07308758     0.06630
C317        C  0.01330494  0.40145489  0.10491889    -0.03330
C318        C  0.01233419  0.37773433  0.12426070    -0.07780
C319        C  0.01270340  0.34962551  0.11289020     0.05750
C320        C  0.01654380  0.34537964  0.08163037    -0.02800
Br321      Br  0.02034780  0.30748398  0.06507047    -0.02500
H322        H  0.01783544  0.36587226  0.03755219     0.09660
H323        H  0.01076625  0.38129067  0.14844065     0.07680
Br324      Br  0.01593459  0.43863781  0.12369190    -0.02930
C325        C  0.50001827  0.13288068  0.38562480    -0.09560
C326        C  0.47381173  0.11427145  0.37926649     0.06630
C327        C  0.44735809  0.12289621  0.35728675    -0.03330
C328        C  0.44815483  0.14907239  0.34122911    -0.07780
C329        C  0.47506955  0.16716950  0.34670561     0.05750
C330        C  0.50066532  0.15913176  0.36981424    -0.02800
Br331      Br  0.03700978  0.18355879  0.38079652    -0.02500
H332        H  0.52019052  0.12691042  0.40287426     0.09660
H333        H  0.42859381  0.15448521  0.32325995     0.07680
Br334      Br  0.41107223  0.09840698  0.34651222    -0.02930
C335        C  0.16018487  0.14616884  0.11915528    -0.09560
C336        C  0.12636549  0.15233861  0.12472402     0.06630
C337        C  0.11845629  0.14645165  0.15489137    -0.03330
C338        C  0.13928089  0.12754361  0.17349498    -0.07780
C339        C  0.16859335  0.11591516  0.16328425     0.05750
C340        C  0.18107363  0.12818109  0.13810463    -0.02800
Br341      Br  0.22457507  0.11853996  0.12629551    -0.02500
H342        H  0.16936674  0.15138094  0.09767843     0.09660
H343        H  0.13137422  0.12045873  0.19506498     0.07680
Br344      Br  0.08410716  0.16510794  0.17498290    -0.02930
C345        C  0.04555687  0.14839529  0.11386065    -0.09560
C346        C  0.06515967  0.16721135  0.09876198     0.06630
C347        C  0.04806918  0.19288730  0.08528242    -0.03330
C348        C  0.01784232  0.20169018  0.09527167    -0.07780
C349        C  0.00767338  0.18794651  0.12044063     0.05750
C350        C  0.01560495  0.15846237  0.12360479    -0.02800
Br351      Br  0.99167113  0.13385814  0.14785511    -0.02500
H352        H  0.05480273  0.12692545  0.12055409     0.09660
H353        H  0.00710926  0.22278274  0.08873025     0.07680
Br354      Br  0.06104653  0.21895978  0.05445879    -0.02930
C355        C  0.15795156  0.21696354  0.08851750    -0.09560
C356        C  0.17474002  0.20629602  0.06465685     0.06630
C357        C  0.15921780  0.18674224  0.04354366    -0.03330
C358        C  0.13150742  0.17338152  0.05107128    -0.07780
C359        C  0.11798417  0.18003699  0.07844374     0.05750
C360        C  0.12880306  0.20503890  0.09485646    -0.02800
Br361      Br  0.10938366  0.22086124  0.12971138    -0.02500
H362        H  0.16792064  0.23433000  0.10260935     0.09660
H363        H  0.12327712  0.15590839  0.03667235     0.07680
Br364      Br  0.17260937  0.17636587  0.50390750    -0.02930
C365        C  0.11278680  0.10176448  0.09378860    -0.09560
C366        C  0.09874441  0.12719974  0.07845987     0.06630
C367        C  0.07896971  0.12302135  0.05002972    -0.03330
C368        C  0.07415322  0.09540508  0.03893072    -0.07780
C369        C  0.08728429  0.07149386  0.05576155     0.05750
C370        C  0.10771411  0.07458707  0.08252408    -0.02800
Br371      Br  0.12469799  0.04195668  0.10710950    -0.02500
H372        H  0.12556640  0.10149632  0.11629020     0.09660
H373        H  0.05733785  0.09237723  0.01842971     0.07680
Br374      Br  0.05448291  0.15226815  0.02539528    -0.02930
C375        C  0.41750680  0.37526315  0.41965386    -0.09560
C376        C  0.38783128  0.37373772  0.39970900     0.06630
C377        C  0.36216138  0.39312533  0.40708215    -0.03330
C378        C  0.37091361  0.42049639  0.41739071    -0.07780
C379        C  0.40456099  0.42550052  0.42520256     0.05750
C380        C  0.42645652  0.40167714  0.43178705    -0.02800
Br381      Br  0.46951095  0.40466290  0.45397007    -0.02500
H382        H  0.43640288  0.35818782  0.42158248     0.09660
H383        H  0.35211589  0.43761764  0.41803436     0.07680
Br384      Br  0.32273263  0.37877945  0.42132854    -0.02930
C385        C  0.29849556  0.33871588  0.34623547    -0.09560
C386        C  0.30390032  0.30945412  0.35153156     0.06630
C387        C  0.33439721  0.29743988  0.34471242    -0.03330
C388        C  0.36194799  0.31449811  0.34826017    -0.07780
C389        C  0.35859619  0.34385475  0.35642303     0.05750
C390        C  0.32540895  0.35648032  0.35048103    -0.02800
Br391      Br  0.31218500  0.39669886  0.34657366    -0.02500
H392        H  0.27353032  0.34811750  0.34575554     0.09660
H393        H  0.38542522  0.30430895  0.34439528     0.07680
Br394      Br  0.34025094  0.25716471  0.33687877    -0.02930
C395        C  0.39190205  0.41432266  0.34827774    -0.09560
C396        C  0.38773150  0.38534313  0.34104887     0.06630
C397        C  0.38167840  0.37877789  0.30922897    -0.03330
C398        C  0.36700183  0.39991066  0.28937756    -0.07780
C399        C  0.36158801  0.42749979  0.30046650     0.05750
C400        C  0.37852884  0.43571219  0.32828105    -0.02800
Br401      Br  0.38364319  0.47511612  0.33999645    -0.02500
H402        H  0.40536429  0.42023937  0.36926782     0.09660
H403        H  0.35718288  0.39415923  0.26638978     0.07680
Br404      Br  0.39040470  0.34211640  0.29120959    -0.02930
C405        C  0.45058187  0.36239711  0.35590321    -0.09560
C406        C  0.42399647  0.34667452  0.36557228     0.06630
C407        C  0.43336761  0.31917022  0.37845716    -0.03330
C408        C  0.46096826  0.30469914  0.36810734    -0.07780
C409        C  0.47731340  0.31808024  0.34550175     0.05750
C410        C  0.47808570  0.34798785  0.34631367    -0.02800
Br411      Br  0.50794933  0.36946094  0.32449289    -0.02500
H412        H  0.44911818  0.38545768  0.35310506     0.09660
H413        H  0.46498604  0.28190523  0.37272042     0.07680
Br414      Br  0.40970999  0.30029813  0.40825741    -0.02930
C415        C  0.38946517  0.36194862  0.86630783    -0.02890
C416        C  0.10121002  0.15704514  0.59508170    -0.02890
C417        C  0.06054061  0.41896505  0.92557689     0.42050
N418        N  0.02732320  0.45625606  0.92949896     0.00940
C419        C  0.03618165  0.04286138  0.55550211    -0.06930
H420        H  0.46624940  0.45041530  0.56832956     0.06430
C421        C  0.38076607  0.50655946  0.99311092    -0.07290
Co422      Co  0.04570458  0.48024040  0.99069703     0.74180
N423        N  0.49569578  0.46680229  0.53439571    -0.26460
Co424      Co  0.47828141  0.50933247  0.52682479     0.74070
C425        C  0.37809175  0.49524820  0.02415223     0.42150
N426        N  0.43232073  0.49561769  0.92707831     0.00560
N427        N  0.42981090  0.49747365  0.51595417     0.00660
N428        N  0.07875378  0.02558892  0.53011351    -0.47310
H429        H  0.07710285  0.41915373  0.97663020     0.06420
N430        N  0.02132987  0.45581554  0.52130542     0.00950
N431        N  0.46046618  0.05233962  0.51792949     0.00690
C432        C  0.43567965  0.09379265  0.52229391     0.42290
N433        N  0.45761691  0.48366176  0.91403204    -0.25920
C434        C  0.10316060  0.00545170  0.95630883    -0.06840
N435        N  0.04056544  0.43901972  0.90931784    -0.47030
N436        N  0.45261734  0.07192870  0.53830403    -0.47250
C437        C  0.10653282  0.01531074  0.92486380     0.42070
N438        N  0.05135282  0.01166605  0.52299192     0.00940
N439        N  0.48751842  0.04100344  0.91181745    -0.25940
N440        N  0.03970679  0.44958489  0.95768752    -0.26430
N441        N  0.46214780  0.05204533  0.92517944     0.00580
H442        H  0.51750736  0.05840031  0.87854678     0.06470
H443        H  0.41617094  0.09465909  0.97156490     0.06500
N444        N  0.02603383  0.02189136  0.53692672    -0.26480
N445        N  0.41365795  0.50701091  0.99008769    -0.26100
N446        N  0.05444309  0.01179889  0.93168602     0.00940
C447        C  0.00904695  0.42246240  0.55175259     0.42340
C448        C  0.44970747  0.45702016  0.90585095    -0.07350
N449        N  0.44766612  0.05955473  0.98996673    -0.26090
H450        H  0.36133261  0.51610287  0.97710452     0.06490
N451        N  0.03024858  0.42936517  0.53121697    -0.47320
H452        H  0.46677606  0.44082854  0.89810004     0.06470
C453        C  0.47465535  0.08605451  0.89552370     0.42170
C454        C  0.05949909  0.42606239  0.95758109    -0.06840
Co455      Co  0.00611108  0.99849763  0.92071232     0.73820
N456        N  0.40804432  0.47789734  0.92951608    -0.47030
C457        C  0.07083803  0.04504899  0.55091413     0.42440
N458        N  0.07507782  0.01797429  0.91117669    -0.47020
Co459      Co  0.43882240  0.02880203  0.95718298     0.73890
C460        C  0.43274084  0.08548158  0.99026622    -0.07350
C461        C  0.48600641  0.44720580  0.55367977    -0.06910
N462        N  0.07023407  0.00377772  0.95841375    -0.26440
N463        N  0.40972078  0.49074109  0.53671224    -0.47200
H464        H  0.52054482  0.05648495  0.56848689     0.06450
C465        C  0.49736193  0.06109489  0.89283923    -0.07330
Cl466      Cl  0.49233177  0.00425482  0.97381821    -0.50330
C467        C  0.41755420  0.45308002  0.91730776     0.42200
H468        H  0.12243010  0.99654541  0.97290607     0.06410
N469        N  0.45358444  0.07875651  0.91595873    -0.47040
C470        C  0.35431027  0.29242335  0.53400129     0.42050
N471        N  0.33137401  0.27829442  0.98999992     0.00940
C472        C  0.16802771  0.32171206  0.94385880    -0.06930
H473        H  0.19781313  0.30716538  0.56022320     0.06430
C474        C  0.22802061  0.20603735  0.54110608    -0.07270
Co475      Co  0.26938608  0.31552382  0.97143734     0.74180
N476        N  0.22518595  0.30806009  0.52056879    -0.26460
Co477      Co  0.20387457  0.27860064  0.98916543     0.74070
C478        C  0.20416511  0.22069858  0.55881678     0.42150
N479        N  0.29291967  0.20276392  0.99810722     0.00560
N480        N  0.21232084  0.24721348  0.52133432     0.00660
N481        N  0.20983718  0.34958520  0.93309092    -0.47310
H482        H  0.32014868  0.33241997  0.53304060     0.06420
N483        N  0.25035910  0.32295820  0.51358485     0.00950
N484        N  0.18377918  0.24958232  0.95705967     0.00690
C485        C  0.15831919  0.23401118  0.91521386     0.42290
N486        N  0.31833283  0.21689395  0.99040224    -0.25920
C487        C  0.27780236  0.31796613  0.90238477    -0.06840
N488        N  0.35394955  0.27102838  0.51318481    -0.47030
N489        N  0.15949124  0.25597750  0.93520746    -0.47250
C490        C  0.29143688  0.29909135  0.87962929     0.42070
N491        N  0.22121731  0.32658556  0.94979394     0.00940
N492        N  0.28957119  0.21801732  0.92610617    -0.25940
N493        N  0.31567854  0.30305517  0.99487373    -0.26430
N494        N  0.26419251  0.20460126  0.93501545     0.00580
H495        H  0.31603339  0.21232458  0.88563739     0.06470
H496        H  0.19230267  0.19365357  0.91601485     0.06500
N497        N  0.19687622  0.31075924  0.95685948    -0.26480
N498        N  0.22892241  0.22307814  0.01692635    -0.26100
N499        N  0.30200146  0.28046521  0.92450146     0.00940
C500        C  0.24061031  0.33837310  0.55831613     0.42340
C501        C  0.34637591  0.20472369  0.00420027    -0.07350
N502        N  0.19939002  0.22482510  0.95233812    -0.26090
H503        H  0.23688479  0.18379355  0.54248168     0.06490
N504        N  0.26019156  0.34137701  0.53534891    -0.47320
H505        H  0.37122904  0.21054617  0.00037598     0.06470
C506        C  0.27146202  0.18377748  0.89225761     0.42170
C507        C  0.32924346  0.31374246  0.52153523    -0.06840
Co508      Co  0.31159430  0.24891509  0.95726090     0.73820
N509        N  0.30225976  0.18024576  0.01598527    -0.47030
C510        C  0.17624282  0.34732340  0.92784719     0.42440
N511        N  0.30606776  0.27640159  0.89536783    -0.47020
Co512      Co  0.24579129  0.21323970  0.97601696     0.73890
C513        C  0.18423602  0.21304506  0.92696420    -0.07350
C514        C  0.21731157  0.31605380  0.54847332    -0.06910
N515        N  0.28578252  0.30488878  0.92938184    -0.26440
N516        N  0.19794343  0.24701906  0.54674011    -0.47200
H517        H  0.14386768  0.31426181  0.94789085     0.06450
C518        C  0.29604736  0.20649139  0.89872811    -0.07330
Cl519      Cl  0.25767802  0.26411736  0.97335217    -0.50330
C520        C  0.33581381  0.18038161  0.52127076     0.42200
H521        H  0.26332335  0.33791864  0.89890614     0.06410
N522        N  0.25315400  0.18449462  0.91602875    -0.47040
C523        C  0.09707118  0.23767463  0.79063312     0.42050
N524        N  0.05763481  0.22666273  0.75680101     0.00940
C525        C  0.48061375  0.32929218  0.65542289    -0.06930
H526        H  0.00943054  0.36973474  0.74770669     0.06430
C527        C  0.45241080  0.28118337  0.80618501    -0.07290
Co528      Co  0.04450958  0.27283144  0.70778469     0.74180
N529        N  0.02128910  0.32565849  0.73761302    -0.26460
Co530      Co  0.47489104  0.30926717  0.72187371     0.74070
C531        C  0.47137903  0.30614162  0.81475568     0.42150
N532        N  0.46703939  0.21991224  0.78616898     0.00560
N533        N  0.46204908  0.30501319  0.76589195     0.00660
N534        N  0.02857744  0.30620002  0.64620628    -0.47310
H535        H  0.10750170  0.27840300  0.76401999     0.06420
N536        N  0.04898406  0.31198341  0.73158735     0.00950
N537        N  0.42998054  0.29375410  0.70312530     0.00690
C538        C  0.39374336  0.28420213  0.66519390     0.42290
N539        N  0.49662721  0.20861661  0.78233193    -0.25920
C540        C  0.02883587  0.23219012  0.65295447    -0.06840
N541        N  0.07314348  0.21891311  0.78369836    -0.47030
N542        N  0.41639877  0.30292688  0.67597549    -0.47250
C543        C  0.01237810  0.20476860  0.64850783     0.42070
N544        N  0.01793024  0.29705050  0.67213856     0.00940
N545        N  0.46737628  0.19270624  0.72300297    -0.25940
N546        N  0.06946092  0.25009982  0.74551990    -0.26430
N547        N  0.43931904  0.20758259  0.72467241     0.00580
H548        H  0.47835762  0.14751484  0.71711378     0.06470
H549        H  0.38299989  0.24110370  0.68749072     0.06500
N550        N  0.49049947  0.31098263  0.67830943    -0.26480
N551        N  0.44879313  0.28157219  0.77557150    -0.26100
N552        N  0.02525484  0.21146125  0.69620176     0.00940
C553        C  0.06358236  0.35585254  0.74111655     0.42340
C554        C  0.00673816  0.19064639  0.80551343    -0.07350
N555        N  0.41819403  0.26918290  0.71146293    -0.26090
H556        H  0.44685946  0.26354719  0.82057517     0.06490
N557        N  0.07453891  0.32926933  0.73291366    -0.47320
H558        H  0.02779079  0.17556588  0.80596198     0.06470
C559        C  0.42409702  0.16447105  0.71491143     0.42170
C560        C  0.09473780  0.25855097  0.76542857    -0.06840
Co561      Co  0.01303055  0.20970682  0.73958508     0.73820
N562        N  0.45520473  0.20893556  0.81081698    -0.47030
C563        C  0.00563350  0.32608182  0.63383323     0.42440
N564        N  0.01190674  0.19315841  0.67622939    -0.47020
Co565      Co  0.44168486  0.24515280  0.74944381     0.73890
C566        C  0.39494339  0.26148628  0.68885278    -0.07350
C567        C  0.02807981  0.35305734  0.74468944    -0.06910
N568        N  0.03533980  0.23484817  0.68340188    -0.26440
N569        N  0.47548332  0.32037858  0.78876260    -0.47200
H570        H  0.46086881  0.34558532  0.65578718     0.06450
C571        C  0.46031006  0.16531364  0.71638619    -0.07330
Cl572      Cl  0.49365398  0.25937352  0.72985385    -0.50330
C573        C  0.47953832  0.19098539  0.82482277     0.42200
H574        H  0.03155446  0.24874082  0.63618344     0.06410
N575        N  0.41305418  0.19148532  0.72057288    -0.47040
C576        C  0.19933447  0.49572559  0.83512357     0.42050
N577        N  0.23362503  0.50533609  0.80178644     0.00940
C578        C  0.19336599  0.06343726  0.65912432    -0.06930
H579        H  0.16407187  0.44556543  0.67578580     0.06430
C580        C  0.28172645  0.42931873  0.68070159    -0.07290
Co581      Co  0.19475405  0.03053217  0.74648594     0.74180
N582        N  0.17835915  0.48412439  0.70035446    -0.26460
Co583      Co  0.21698949  0.50039374  0.67704752     0.74070
C584        C  0.25387802  0.41752544  0.66081709     0.42150
N585        N  0.30589595  0.46921939  0.75095198     0.00560
N586        N  0.23985175  0.45970927  0.67675521     0.00660
N587        N  0.17868361  0.08007044  0.70448419    -0.47310
H588        H  0.15432514  0.50645314  0.80079673     0.06420
N589        N  0.16986576  0.49523876  0.72630742     0.00950
N590        N  0.25739851  0.01448791  0.65378467     0.00690
C591        C  0.29138614  0.01882715  0.61867649     0.42290
N592        N  0.29721049  0.48020525  0.77690389    -0.25920
C593        C  0.21258611  0.09274739  0.77505300    -0.06840
N594        N  0.23212414  0.49884039  0.83134930    -0.47030
N595        N  0.25868747  0.01775641  0.62363182    -0.47250
C596        C  0.24290894  0.10472154  0.79121757     0.42070
N597        N  0.18791025  0.05264426  0.70604651     0.00940
N598        N  0.31270396  0.03619887  0.75592288    -0.25940
N599        N  0.20359479  0.50863212  0.78723304    -0.26430
N600        N  0.32074054  0.02571031  0.72959797     0.00580
H601        H  0.32932719  0.07223199  0.78299614     0.06470
H602        H  0.33631461  0.00916061  0.65341338     0.06500
N603        N  0.19669350  0.04217785  0.67992663    -0.26480
N604        N  0.27078566  0.45558657  0.68903494    -0.26100
N605        N  0.25230569  0.06063020  0.77878553     0.00940
C606        C  0.14088589  0.45719597  0.72009611     0.42340
C607        C  0.31325431  0.46557218  0.80028739    -0.07350
N608        N  0.28747003  0.01142399  0.66825025    -0.26090
H609        H  0.30675891  0.42072994  0.68619992     0.06490
N610        N  0.14789306  0.47962613  0.73895059    -0.47320
H611        H  0.31336062  0.47133314  0.82415951     0.06470
C612        C  0.35132381  0.06238092  0.73747953     0.42170
C613        C  0.18081007  0.50248339  0.80588156    -0.06840
Co614      Co  0.27430592  0.02018699  0.77887516     0.73820
N615        N  0.32828302  0.44794135  0.75527303    -0.47030
C616        C  0.18216773  0.08856422  0.67590632     0.42440
N617        N  0.26575627  0.08293359  0.79304248    -0.47020
Co618      Co  0.29653550  0.49040984  0.70979853     0.73890
C619        C  0.31009631  0.01460801  0.64849312    -0.07350
C620        C  0.16125980  0.46011947  0.69460194    -0.06910
N621        N  0.22115898  0.06540420  0.76766261    -0.26440
N622        N  0.22909683  0.43789432  0.65978571    -0.47200
H623        H  0.19919024  0.06164695  0.63566561     0.06450
C624        C  0.33103713  0.05901335  0.76296715    -0.07330
Cl625      Cl  0.24564655  0.51019625  0.72807013    -0.50330
C626        C  0.33441125  0.44503648  0.78569280     0.42200
H627        H  0.18802603  0.10279112  0.77069118     0.06410
N628        N  0.34339993  0.04090993  0.71764790    -0.47040
C629        C  0.41042878  0.11346970  0.70349840    -0.09560
C630        C  0.40525777  0.13852873  0.72043796     0.06630
C631        C  0.38325831  0.13784220  0.74344850    -0.03330
C632        C  0.36643654  0.11291139  0.74838953    -0.07780
C633        C  0.37089269  0.08789480  0.73114665     0.05750
C634        C  0.39346294  0.08834895  0.70849305    -0.02800
Br635      Br  0.40330857  0.05540999  0.68426339    -0.02500
H636        H  0.42772201  0.11345262  0.68618718     0.09660
H637        H  0.34960009  0.11341729  0.76601672     0.07680
Br638      Br  0.37637718  0.16927423  0.77076612    -0.02930
C639        C  0.08675915  0.43245569  0.71838224    -0.09560
C640        C  0.12100003  0.43199247  0.72732068     0.06630
C641        C  0.13584479  0.40689156  0.74170685    -0.03330
C642        C  0.11673766  0.38276661  0.74623085    -0.07780
C643        C  0.08230967  0.38293862  0.73711532     0.05750
C644        C  0.06745022  0.40855416  0.72307341    -0.02800
Br645      Br  0.02162698  0.41241324  0.70718378    -0.02500
H646        H  0.07497575  0.45143524  0.70700972     0.09660
H647        H  0.12894826  0.36368833  0.75699896     0.07680
Br648      Br  0.18230592  0.40474723  0.75560801    -0.02930
C649        C  0.22128817  0.38324294  0.62788670    -0.09560
C650        C  0.25279023  0.39325305  0.63834325     0.06630
C651        C  0.28045653  0.38260020  0.62380339    -0.03330
C652        C  0.27574603  0.36393350  0.59871770    -0.07780
C653        C  0.24400265  0.35527117  0.58732178     0.05750
C654        C  0.21660766  0.36469471  0.60277013    -0.02800
Br655      Br  0.17156420  0.35616999  0.58905895    -0.02500
H656        H  0.19963682  0.39103424  0.63849471     0.09660
H657        H  0.29715224  0.35674526  0.58739652     0.07680
Br658      Br  0.32507937  0.39402255  0.63440622    -0.02930
C659        C  0.23477109  0.12267880  0.84286038    -0.09560
C660        C  0.24582234  0.12803428  0.81433658     0.06630
C661        C  0.26621303  0.15163254  0.81141918    -0.03330
C662        C  0.27466031  0.16962272  0.83671831    -0.07780
C663        C  0.26385211  0.16401563  0.86560004     0.05750
C664        C  0.24387424  0.13977815  0.86831380    -0.02800
Br665      Br  0.23029183  0.12614074  0.90641748    -0.02500
H666        H  0.22059868  0.10378513  0.84588044     0.09660
H667        H  0.28982139  0.18788484  0.83379662     0.07680
Br668      Br  0.28337427  0.15964259  0.77328656    -0.02930
C669        C  0.14742120  0.23594490  0.82779857    -0.09560
C670        C  0.11309840  0.24082342  0.82209579     0.06630
C671        C  0.09414495  0.24589257  0.84698419    -0.03330
C672        C  0.10936965  0.24393499  0.87712831    -0.07780
C673        C  0.14346760  0.23713735  0.88298855     0.05750
C674        C  0.16276927  0.23447435  0.85787163    -0.02800
Br675      Br  0.21028384  0.23116677  0.86264229    -0.02500
H676        H  0.16229897  0.23280470  0.80878643     0.09660
H677        H  0.09443156  0.24732165  0.89605454     0.07680
Br678      Br  0.04762922  0.25645112  0.84086477    -0.02930
C679        C  0.34043386  0.28500415  0.58804586    -0.09560
C680        C  0.36462302  0.28783812  0.56735829     0.06630
C681        C  0.39824994  0.28713129  0.57904730    -0.03330
C682        C  0.40722873  0.28481271  0.61080151    -0.07780
C683        C  0.38310526  0.28245830  0.63163829     0.05750
C684        C  0.34945344  0.28203825  0.61984780    -0.02800
Br685      Br  0.31498621  0.27935611  0.64650025    -0.02500
H686        H  0.31437721  0.28542340  0.57946370     0.09660
H687        H  0.43325680  0.28537820  0.61931877     0.07680
Br688      Br  0.43247846  0.29102312  0.55239311    -0.02930
C689        C  0.39082438  0.16125534  0.54383833    -0.09560
C690        C  0.35831116  0.15554033  0.53146581     0.06630
C691        C  0.35076640  0.12694076  0.52364812    -0.03330
C692        C  0.37625669  0.10562354  0.52552152    -0.07780
C693        C  0.40945298  0.11235890  0.53399544     0.05750
C694        C  0.41635633  0.13998108  0.54483405    -0.02800
Br695      Br  0.46095991  0.15050867  0.55681889    -0.02500
H696        H  0.39703898  0.18299644  0.55023139     0.09660
H697        H  0.37071364  0.08436364  0.51690195     0.07680
Br698      Br  0.30813167  0.11623341  0.00486036    -0.02930
C699        C  0.12200136  0.41590115  0.92382526    -0.09560
C700        C  0.09073046  0.40438419  0.91516689     0.06630
C701        C  0.08983189  0.37590408  0.90491383    -0.03330
C702        C  0.11929541  0.35918639  0.90463732    -0.07780
C703        C  0.15014635  0.36949462  0.91669126     0.05750
C704        C  0.15155527  0.39874580  0.92489757    -0.02800
Br705      Br  0.19181673  0.41530254  0.94215244    -0.02500
H706        H  0.12313880  0.43751818  0.93284448     0.09660
H707        H  0.11750081  0.33676908  0.89833314     0.07680
Br708      Br  0.04882680  0.35691078  0.89756909    -0.02930
C709        C  0.18592514  0.01963083  0.88422196    -0.09560
C710        C  0.18263277  0.49618213  0.86402400     0.06630
C711        C  0.15627716  0.47766051  0.86679089    -0.03330
C712        C  0.13281996  0.98364740  0.88761285    -0.07780
C713        C  0.13498287  0.00781292  0.90666549     0.05750
C714        C  0.16244411  0.02542838  0.90547229    -0.02800
Br715      Br  0.16689136  0.05913796  0.93028289    -0.02500
H716        H  0.20528197  0.03466913  0.88195616     0.09660
H717        H  0.11187117  0.46993482  0.88798314     0.07680
Br718      Br  0.14993046  0.44470632  0.84092487    -0.02930
C719        C  0.32420958  0.48412534  0.58919504    -0.09560
C720        C  0.30611952  0.01053130  0.58977301     0.06630
C721        C  0.30831138  0.03022227  0.56565692    -0.03330
C722        C  0.32983891  0.52416982  0.54278319    -0.07780
C723        C  0.34983617  0.49860320  0.54367812     0.05750
C724        C  0.34578569  0.47812527  0.56665845    -0.02800
Br725      Br  0.37015359  0.44182222  0.56893047    -0.02500
H726        H  0.32288096  0.46856520  0.60740414     0.09660
H727        H  0.33256038  0.54034067  0.52552592     0.07680
Br728      Br  0.28480849  0.06673606  0.56506404    -0.02930
C729        C  0.01659797  0.36930399  0.56183887    -0.09560
C730        C  0.01354199  0.39749709  0.57308757     0.06630
C731        C  0.01330496  0.40145488  0.60491888    -0.03330
C732        C  0.01233421  0.37773433  0.62426069    -0.07780
C733        C  0.01270342  0.34962550  0.61289020     0.05750
C734        C  0.01654382  0.34537963  0.58163037    -0.02800
Br735      Br  0.02034783  0.30748397  0.56507048    -0.02500
H736        H  0.01783546  0.36587224  0.53755218     0.09660
H737        H  0.01076627  0.38129067  0.64844064     0.07680
Br738      Br  0.01593461  0.43863781  0.62369188    -0.02930
C739        C  0.50001826  0.13288068  0.88562478    -0.09560
C740        C  0.47381173  0.11427144  0.87926646     0.06630
C741        C  0.44735809  0.12289619  0.85728671    -0.03330
C742        C  0.44815483  0.14907237  0.84122907    -0.07780
C743        C  0.47506955  0.16716949  0.84670558     0.05750
C744        C  0.50066531  0.15913175  0.86981422    -0.02800
Br745      Br  0.03700976  0.18355881  0.88079654    -0.02500
H746        H  0.52019050  0.12691042  0.90287425     0.09660
H747        H  0.42859382  0.15448520  0.82325990     0.07680
Br748      Br  0.41107224  0.09840696  0.84651216    -0.02930
C749        C  0.16018491  0.14616878  0.61915529    -0.09560
C750        C  0.12636553  0.15233855  0.62472403     0.06630
C751        C  0.11845631  0.14645158  0.65489138    -0.03330
C752        C  0.13928091  0.12754352  0.67349497    -0.07780
C753        C  0.16859336  0.11591506  0.66328424     0.05750
C754        C  0.18107365  0.12818100  0.63810462    -0.02800
Br755      Br  0.22457508  0.11853986  0.62629550    -0.02500
H756        H  0.16936678  0.15138089  0.59767845     0.09660
H757        H  0.13137423  0.12045863  0.69506497     0.07680
Br758      Br  0.08410719  0.16510788  0.67498291    -0.02930
C759        C  0.04555691  0.14839527  0.61386065    -0.09560
C760        C  0.06515971  0.16721133  0.59876199     0.06630
C761        C  0.04806925  0.19288729  0.58528244    -0.03330
C762        C  0.01784238  0.20169018  0.59527168    -0.07780
C763        C  0.00767343  0.18794651  0.62044063     0.05750
C764        C  0.01560498  0.15846236  0.62360479    -0.02800
Br765      Br  0.99167115  0.13385814  0.64785510    -0.02500
H766        H  0.05480276  0.12692543  0.62055409     0.09660
H767        H  0.00710933  0.22278274  0.58873026     0.07680
Br768      Br  0.06104662  0.21895978  0.55445882    -0.02930
C769        C  0.15795161  0.21696351  0.58851752    -0.09560
C770        C  0.17474006  0.20629602  0.56465686     0.06630
C771        C  0.15921783  0.18674224  0.54354367    -0.03330
C772        C  0.13150747  0.17338150  0.55107130    -0.07780
C773        C  0.11798423  0.18003695  0.57844377     0.05750
C774        C  0.12880312  0.20503886  0.59485650    -0.02800
Br775      Br  0.10938374  0.22086119  0.62971143    -0.02500
H776        H  0.16792068  0.23432998  0.60260938     0.09660
H777        H  0.12327718  0.15590837  0.53667237     0.07680
Br778      Br  0.17260936  0.17636584  0.00390750    -0.02930
C779        C  0.11278682  0.10176444  0.59378858    -0.09560
C780        C  0.09874444  0.12719972  0.57845986     0.06630
C781        C  0.07896974  0.12302134  0.55002971    -0.03330
C782        C  0.07415323  0.09540508  0.53893070    -0.07780
C783        C  0.08728430  0.07149385  0.55576151     0.05750
C784        C  0.10771412  0.07458704  0.58252404    -0.02800
Br785      Br  0.12469799  0.04195664  0.60710945    -0.02500
H786        H  0.12556641  0.10149627  0.61629018     0.09660
H787        H  0.05733787  0.09237724  0.51842968     0.07680
Br788      Br  0.05448296  0.15226816  0.52539528    -0.02930
C789        C  0.41750682  0.37526312  0.91965393    -0.09560
C790        C  0.38783129  0.37373770  0.89970908     0.06630
C791        C  0.36216140  0.39312531  0.90708226    -0.03330
C792        C  0.37091363  0.42049636  0.91739083    -0.07780
C793        C  0.40456100  0.42550049  0.92520267     0.05750
C794        C  0.42645654  0.40167711  0.93178714    -0.02800
Br795      Br  0.46951098  0.40466287  0.95397014    -0.02500
H796        H  0.43640291  0.35818780  0.92158253     0.09660
H797        H  0.35211590  0.43761761  0.91803450     0.07680
Br798      Br  0.32273266  0.37877940  0.92132864    -0.02930
C799        C  0.29849555  0.33871591  0.84623550    -0.09560
C800        C  0.30390030  0.30945414  0.85153157     0.06630
C801        C  0.33439719  0.29743990  0.84471244    -0.03330
C802        C  0.36194797  0.31449812  0.84826021    -0.07780
C803        C  0.35859618  0.34385476  0.85642309     0.05750
C804        C  0.32540895  0.35648033  0.85048110    -0.02800
Br805      Br  0.31218500  0.39669888  0.84657378    -0.02500
H806        H  0.27353031  0.34811752  0.84575557     0.09660
H807        H  0.38542520  0.30430897  0.84439533     0.07680
Br808      Br  0.34025091  0.25716474  0.83687875    -0.02930
C809        C  0.39190201  0.41432267  0.84827782    -0.09560
C810        C  0.38773148  0.38534314  0.84104894     0.06630
C811        C  0.38167839  0.37877791  0.80922905    -0.03330
C812        C  0.36700181  0.39991068  0.78937764    -0.07780
C813        C  0.36158798  0.42749980  0.80046658     0.05750
C814        C  0.37852880  0.43571220  0.82828114    -0.02800
Br815      Br  0.38364312  0.47511613  0.83999656    -0.02500
H816        H  0.40536424  0.42023938  0.86926791     0.09660
H817        H  0.35718287  0.39415925  0.76638986     0.07680
Br818      Br  0.39040471  0.34211642  0.79120965    -0.02930
C819        C  0.45058186  0.36239712  0.85590325    -0.09560
C820        C  0.42399647  0.34667453  0.86557233     0.06630
C821        C  0.43336761  0.31917022  0.87845718    -0.03330
C822        C  0.46096825  0.30469914  0.86810735    -0.07780
C823        C  0.47731338  0.31808026  0.84550175     0.05750
C824        C  0.47808567  0.34798787  0.84631368    -0.02800
Br825      Br  0.50794929  0.36946096  0.82449290    -0.02500
H826        H  0.44911817  0.38545769  0.85310511     0.09660
H827        H  0.46498603  0.28190523  0.87272041     0.07680
Br828      Br  0.40971000  0.30029812  0.90825744    -0.02930
C829        C  0.38946513  0.86194863  0.36630772    -0.02890
C830        C  0.10121000  0.65704519  0.09508171    -0.02890
C831        C  0.06054061  0.91896504  0.42557685     0.42050
N832        N  0.02732319  0.95625605  0.42949893     0.00940
C833        C  0.03618165  0.54286141  0.05550213    -0.06930
H834        H  0.46624936  0.95041533  0.06832959     0.06430
C835        C  0.38076608  0.00655946  0.49311092    -0.07290
Co836      Co  0.04570457  0.98024037  0.49069701     0.74180
N837        N  0.49569575  0.96680230  0.03439574    -0.26460
Co838      Co  0.47828140  0.00933249  0.02682482     0.74070
C839        C  0.37809176  0.99524820  0.52415223     0.42150
N840        N  0.43232074  0.99561771  0.42707828     0.00560
N841        N  0.42981088  0.99747370  0.01595420     0.00660
N842        N  0.07875378  0.52558896  0.03011353    -0.47310
H843        H  0.07710282  0.91915371  0.47663017     0.06420
N844        N  0.02132981  0.95581555  0.02130543     0.00950
N845        N  0.46046616  0.55233964  0.01792948     0.00690
C846        C  0.43567964  0.59379267  0.02229388     0.42290
N847        N  0.45761691  0.98366179  0.41403200    -0.25920
C848        C  0.10316064  0.50545169  0.45630882    -0.06840
N849        N  0.04056544  0.93901973  0.40931781    -0.47030
N850        N  0.45261733  0.57192872  0.03830401    -0.47250
C851        C  0.10653285  0.51531074  0.42486378     0.42070
N852        N  0.05135282  0.51166609  0.02299194     0.00940
N853        N  0.48751842  0.54100344  0.41181744    -0.25940
N854        N  0.03970676  0.94958487  0.45768749    -0.26430
N855        N  0.46214779  0.55204532  0.42517943     0.00580
H856        H  0.51750736  0.55840033  0.37854678     0.06470
H857        H  0.41617090  0.59465905  0.47156489     0.06500
N858        N  0.02603383  0.52189139  0.03692673    -0.26480
N859        N  0.41365795  0.00701092  0.49008768    -0.26100
N860        N  0.05444313  0.51179889  0.43168601     0.00940
C861        C  0.00904689  0.92246241  0.05175260     0.42340
C862        C  0.44970744  0.95702021  0.40585085    -0.07350
N863        N  0.44766610  0.55955470  0.48996672    -0.26090
H864        H  0.36133261  0.01610289  0.47710452     0.06490
N865        N  0.03024852  0.92936518  0.03121698    -0.47320
H866        H  0.46677600  0.94082860  0.39809992     0.06470
C867        C  0.47465534  0.58605452  0.39552371     0.42170
C868        C  0.05949907  0.92606237  0.45758105    -0.06840
Co869      Co  0.00611112  0.49849763  0.42071231     0.73820
N870        N  0.40804430  0.97789739  0.42951600    -0.47030
C871        C  0.07083803  0.54504903  0.05091415     0.42440
N872        N  0.07507785  0.51797430  0.41117668    -0.47020
Co873      Co  0.43882240  0.52880200  0.45718296     0.73890
C874        C  0.43274080  0.58548155  0.49026621    -0.07350
C875        C  0.48600637  0.94720582  0.05367980    -0.06910
N876        N  0.07023411  0.50377772  0.45841374    -0.26440
N877        N  0.40972076  0.99074114  0.03671227    -0.47200
H878        H  0.52054479  0.55648499  0.06848689     0.06450
C879        C  0.49736193  0.56109490  0.39283923    -0.07330
Cl880      Cl  0.49233178  0.50425481  0.47381819    -0.50330
C881        C  0.41755414  0.95308008  0.41730764     0.42200
H882        H  0.12243013  0.49654540  0.47290605     0.06410
N883        N  0.45358443  0.57875651  0.41595874    -0.47040
C884        C  0.35431022  0.79242337  0.03400129     0.42050
N885        N  0.33137405  0.77829444  0.48999993     0.00940
C886        C  0.16802775  0.82171210  0.44385881    -0.06930
H887        H  0.19781307  0.80716539  0.06022318     0.06430
C888        C  0.22802060  0.70603735  0.04110607    -0.07270
Co889      Co  0.26938613  0.81552385  0.47143734     0.74180
N890        N  0.22518591  0.80806009  0.02056877    -0.26460
Co891      Co  0.20387461  0.77860068  0.48916543     0.74070
C892        C  0.20416511  0.72069858  0.05881678     0.42150
N893        N  0.29291969  0.70276394  0.49810724     0.00560
N894        N  0.21232083  0.74721348  0.02133431     0.00660
N895        N  0.20983723  0.84958524  0.43309092    -0.47310
H896        H  0.32014862  0.83241998  0.03304060     0.06420
N897        N  0.25035905  0.82295820  0.01358484     0.00950
N898        N  0.18377921  0.74958236  0.45705967     0.00690
C899        C  0.15831922  0.73401123  0.41521386     0.42290
N900        N  0.31833285  0.71689396  0.49040226    -0.25920
C901        C  0.27780240  0.81796614  0.40238477    -0.06840
N902        N  0.35394951  0.77102841  0.01318480    -0.47030
N903        N  0.15949127  0.75597754  0.43520745    -0.47250
C904        C  0.29143690  0.79909134  0.37962930     0.42070
N905        N  0.22121735  0.82658560  0.44979394     0.00940
N906        N  0.28957123  0.71801733  0.42610619    -0.25940
N907        N  0.31567858  0.80305519  0.49487374    -0.26430
N908        N  0.26419254  0.70460128  0.43501546     0.00580
H909        H  0.31603345  0.71232457  0.38563743     0.06470
H910        H  0.19230269  0.69365360  0.41601485     0.06500
N911        N  0.19687627  0.81075928  0.45685948    -0.26480
N912        N  0.22892242  0.72307817  0.51692635    -0.26100
N913        N  0.30200150  0.78046522  0.42450147     0.00940
C914        C  0.24061025  0.83837310  0.05831611     0.42340
C915        C  0.34637592  0.70472369  0.50420029    -0.07350
N916        N  0.19939005  0.72482513  0.45233812    -0.26090
H917        H  0.23688479  0.68379355  0.04248167     0.06490
N918        N  0.26019150  0.84137702  0.03534890    -0.47320
H919        H  0.37122906  0.71054617  0.50037600     0.06470
C920        C  0.27146207  0.68377748  0.39225763     0.42170
C921        C  0.32924341  0.81374247  0.02153523    -0.06840
Co922      Co  0.31159433  0.74891510  0.45726092     0.73820
N923        N  0.30225977  0.68024578  0.51598528    -0.47030
C924        C  0.17624287  0.84732344  0.42784719     0.42440
N925        N  0.30606779  0.77640159  0.39536784    -0.47020
Co926      Co  0.24579130  0.71323973  0.47601697     0.73890
C927        C  0.18423605  0.71304510  0.42696421    -0.07350
C928        C  0.21731151  0.81605381  0.04847330    -0.06910
N929        N  0.28578257  0.80488879  0.42938185    -0.26440
N930        N  0.19794342  0.74701907  0.04674011    -0.47200
H931        H  0.14386772  0.81426186  0.44789086     0.06450
C932        C  0.29604741  0.70649139  0.39872814    -0.07330
Cl933      Cl  0.25767806  0.76411738  0.47335218    -0.50330
C934        C  0.33581380  0.68038164  0.02127074     0.42200
H935        H  0.26332338  0.83791864  0.39890614     0.06410
N936        N  0.25315403  0.68449463  0.41602876    -0.47040
C937        C  0.09707116  0.73767466  0.29063313     0.42050
N938        N  0.05763479  0.72666276  0.25680103     0.00940
C939        C  0.48061371  0.82929218  0.15542290    -0.06930
H940        H  0.00943048  0.86973476  0.24770669     0.06430
C941        C  0.45241076  0.78118337  0.30618501    -0.07290
Co942      Co  0.04450955  0.77283146  0.20778471     0.74180
N943        N  0.02128905  0.82565850  0.23761303    -0.26460
Co944      Co  0.47489099  0.80926717  0.22187372     0.74070
C945        C  0.47137899  0.80614162  0.31475568     0.42150
N946        N  0.46703935  0.71991225  0.28616899     0.00560
N947        N  0.46204903  0.80501319  0.26589196     0.00660
N948        N  0.02857740  0.80620003  0.14620629    -0.47310
H949        H  0.10750167  0.77840302  0.26402000     0.06420
N950        N  0.04898401  0.81198342  0.23158736     0.00950
N951        N  0.42998050  0.79375409  0.20312530     0.00690
C952        C  0.39374332  0.78420212  0.16519391     0.42290
N953        N  0.49662718  0.70861662  0.28233195    -0.25920
C954        C  0.02883585  0.73219014  0.15295449    -0.06840
N955        N  0.07314346  0.71891313  0.28369837    -0.47030
N956        N  0.41639873  0.80292687  0.17597549    -0.47250
C957        C  0.01237807  0.70476862  0.14850785     0.42070
N958        N  0.01793020  0.79705051  0.17213857     0.00940
N959        N  0.46737626  0.69270624  0.22300299    -0.25940
N960        N  0.06946089  0.75009984  0.24551991    -0.26430
N961        N  0.43931902  0.70758259  0.22467242     0.00580
H962        H  0.47835761  0.64751484  0.21711379     0.06470
H963        H  0.38299985  0.74110369  0.18749073     0.06500
N964        N  0.49049943  0.81098263  0.17830944    -0.26480
N965        N  0.44879308  0.78157219  0.27557151    -0.26100
N966        N  0.02525482  0.71146126  0.19620178     0.00940
C967        C  0.06358231  0.85585256  0.24111656     0.42340
C968        C  0.00673814  0.69064641  0.30551345    -0.07350
N969        N  0.41819399  0.76918289  0.21146294    -0.26090
H970        H  0.44685942  0.76354719  0.32057518     0.06490
N971        N  0.07453886  0.82926934  0.23291368    -0.47320
H972        H  0.02779079  0.67556590  0.30596200     0.06470
C973        C  0.42409701  0.66447104  0.21491144     0.42170
C974        C  0.09473778  0.75855099  0.26542858    -0.06840
Co975      Co  0.01303053  0.70970683  0.23958509     0.73820
N976        N  0.45520470  0.70893557  0.31081700    -0.47030
C977        C  0.00563345  0.82608182  0.13383324     0.42440
N978        N  0.01190672  0.69315843  0.17622941    -0.47020
Co979      Co  0.44168483  0.74515280  0.24944381     0.73890
C980        C  0.39494336  0.76148626  0.18885278    -0.07350
C981        C  0.02807976  0.85305735  0.24468944    -0.06910
N982        N  0.03533978  0.73484818  0.18340189    -0.26440
N983        N  0.47548328  0.82037858  0.28876261    -0.47200
H984        H  0.46086876  0.84558531  0.15578719     0.06450
C985        C  0.46031005  0.66531364  0.21638620    -0.07330
Cl986      Cl  0.49365394  0.75937352  0.22985387    -0.50330
C987        C  0.47953829  0.69098540  0.32482279     0.42200
H988        H  0.03155443  0.74874084  0.13618345     0.06410
N989        N  0.41305416  0.69148531  0.22057290    -0.47040
C990        C  0.19933447  0.99572555  0.33512355     0.42050
N991        N  0.23362502  0.00533606  0.30178642     0.00940
C992        C  0.19336597  0.56343734  0.15912431    -0.06930
H993        H  0.16407180  0.94556545  0.17578577     0.06430
C994        C  0.28172638  0.92931876  0.18070154    -0.07290
Co995      Co  0.19475403  0.53053221  0.24648591     0.74180
N996        N  0.17835909  0.98412441  0.20035445    -0.26460
Co997      Co  0.21698943  0.00039376  0.17704750     0.74070
C998        C  0.25387795  0.91752546  0.16081704     0.42150
N999        N  0.30589591  0.96921938  0.25095190     0.00560
N1000       N  0.23985168  0.95970929  0.17675516     0.00660
N1001       N  0.17868361  0.58007050  0.20448420    -0.47310
H1002       H  0.15432513  0.00645311  0.30079673     0.06420
N1003       N  0.16986572  0.99523877  0.22630741     0.00950
N1004       N  0.25739846  0.51448796  0.15378463     0.00690
C1005       C  0.29138609  0.51882721  0.11867645     0.42290
N1006       N  0.29721047  0.98020523  0.27690383    -0.25920
C1007       C  0.21258613  0.59274740  0.27505302    -0.06840
N1008       N  0.23212414  0.99884035  0.33134927    -0.47030
N1009       N  0.25868742  0.51775647  0.12363177    -0.47250
C1010       C  0.24290897  0.60472152  0.29121761     0.42070
N1011       N  0.18791024  0.55264431  0.20604650     0.00940
N1012       N  0.31270394  0.53619885  0.25592285    -0.25940
N1013       N  0.20359477  0.00863209  0.28723303    -0.26430
N1014       N  0.32074051  0.52571031  0.22959793     0.00580
H1015       H  0.32932720  0.57223194  0.28299613     0.06470
H1016       H  0.33631456  0.50916064  0.15341333     0.06500
N1017       N  0.19669348  0.54217792  0.17992661    -0.26480
N1018       N  0.27078559  0.95558660  0.18903489    -0.26100
N1019       N  0.25230570  0.56063019  0.27878553     0.00940
C1020       C  0.14088584  0.95719599  0.22009610     0.42340
C1021       C  0.31325431  0.96557215  0.30028731    -0.07350
N1022       N  0.28746998  0.51142404  0.16825021    -0.26090
H1023       H  0.30675885  0.92072997  0.18619987     0.06490
N1024       N  0.14789301  0.97962614  0.23895058    -0.47320
H1025       H  0.31336065  0.97133310  0.32415944     0.06470
C1026       C  0.35132380  0.56238090  0.23747951     0.42170
C1027       C  0.18081006  0.00248336  0.30588155    -0.06840
Co1028     Co  0.27430590  0.52018697  0.27887512     0.73820
N1029       N  0.32828299  0.94794135  0.25527293    -0.47030
C1030       C  0.18216773  0.58856430  0.17590633     0.42440
N1031       N  0.26575629  0.58293356  0.29304250    -0.47020
Co1032     Co  0.29653545  0.99040986  0.20979847     0.73890
C1033       C  0.31009626  0.51460805  0.14849308    -0.07350
C1034       C  0.16125974  0.96011949  0.19460192    -0.06910
N1035       N  0.22115898  0.56540421  0.26766262    -0.26440
N1036       N  0.22909676  0.93789434  0.15978567    -0.47200
H1037       H  0.19919022  0.56164703  0.13566560     0.06450
C1038       C  0.33103712  0.55901332  0.26296713    -0.07330
Cl1039     Cl  0.24564651  0.01019626  0.22807010    -0.50330
C1040       C  0.33441124  0.94503647  0.28569269     0.42200
H1041       H  0.18802606  0.60279114  0.27069121     0.06410
N1042       N  0.34339991  0.54090993  0.21764787    -0.47040
C1043       C  0.41042878  0.61346969  0.20349840    -0.09560
C1044       C  0.40525776  0.63852871  0.22043797     0.06630
C1045       C  0.38325830  0.63784218  0.24344850    -0.03330
C1046       C  0.36643653  0.61291137  0.24838952    -0.07780
C1047       C  0.37089269  0.58789478  0.23114664     0.05750
C1048       C  0.39346294  0.58834894  0.20849305    -0.02800
Br1049     Br  0.40330857  0.55540999  0.18426338    -0.02500
H1050       H  0.42772200  0.61345262  0.18618719     0.09660
H1051       H  0.34960008  0.61341726  0.26601672     0.07680
Br1052     Br  0.37637717  0.66927420  0.27076613    -0.02930
C1053       C  0.08675909  0.93245570  0.21838223    -0.09560
C1054       C  0.12099997  0.93199249  0.22732067     0.06630
C1055       C  0.13584474  0.90689158  0.24170684    -0.03330
C1056       C  0.11673761  0.88276663  0.24623085    -0.07780
C1057       C  0.08230962  0.88293864  0.23711532     0.05750
C1058       C  0.06745016  0.90855417  0.22307341    -0.02800
Br1059     Br  0.02162692  0.91241326  0.20718379    -0.02500
H1060       H  0.07497570  0.95143525  0.20700972     0.09660
H1061       H  0.12894821  0.86368834  0.25699896     0.07680
Br1062     Br  0.18230587  0.90474725  0.25560799    -0.02930
C1063       C  0.22128809  0.88324297  0.12788666    -0.09560
C1064       C  0.25279016  0.89325307  0.13834322     0.06630
C1065       C  0.28045646  0.88260020  0.12380337    -0.03330
C1066       C  0.27574596  0.86393350  0.09871768    -0.07780
C1067       C  0.24400258  0.85527118  0.08732175     0.05750
C1068       C  0.21660758  0.86469473  0.10277010    -0.02800
Br1069     Br  0.17156413  0.85617001  0.08905891    -0.02500
H1070       H  0.19963674  0.89103427  0.13849467     0.09660
H1071       H  0.29715218  0.85674525  0.08739652     0.07680
Br1072     Br  0.32507931  0.89402254  0.13440620    -0.02930
C1073       C  0.23477120  0.62267875  0.34286045    -0.09560
C1074       C  0.24582239  0.62803425  0.31433663     0.06630
C1075       C  0.26621304  0.65163253  0.31141921    -0.03330
C1076       C  0.27466033  0.66962272  0.33671833    -0.07780
C1077       C  0.26385218  0.66401561  0.36560008     0.05750
C1078       C  0.24387436  0.63977810  0.36831386    -0.02800
Br1079     Br  0.23029205  0.62614067  0.40641757    -0.02500
H1080       H  0.22059883  0.60378505  0.34588053     0.09660
H1081       H  0.28982137  0.68788486  0.33379662     0.07680
Br1082     Br  0.28337422  0.65964261  0.27328656    -0.02930
C1083       C  0.14742119  0.73594490  0.32779856    -0.09560
C1084       C  0.11309840  0.74082344  0.32209579     0.06630
C1085       C  0.09414497  0.74589262  0.34698420    -0.03330
C1086       C  0.10936968  0.74393504  0.37712832    -0.07780
C1087       C  0.14346762  0.73713738  0.38298855     0.05750
C1088       C  0.16276927  0.73447434  0.35787163    -0.02800
Br1089     Br  0.21028384  0.73116671  0.36264226    -0.02500
H1090       H  0.16229895  0.73280467  0.30878642     0.09660
H1091       H  0.09443160  0.74732173  0.39605455     0.07680
Br1092     Br  0.04762924  0.75645119  0.34086479    -0.02930
C1093       C  0.34043381  0.78500422  0.08804587    -0.09560
C1094       C  0.36462297  0.78783813  0.06735829     0.06630
C1095       C  0.39824990  0.78713123  0.07904730    -0.03330
C1096       C  0.40722869  0.78481264  0.11080151    -0.07780
C1097       C  0.38310521  0.78245829  0.13163829     0.05750
C1098       C  0.34945339  0.78203830  0.11984781    -0.02800
Br1099     Br  0.31498615  0.77935623  0.14650026    -0.02500
H1100       H  0.31437715  0.78542351  0.07946371     0.09660
H1101       H  0.43325676  0.78537808  0.11931876     0.07680
Br1102     Br  0.43247843  0.79102297  0.05239310    -0.02930
C1103       C  0.39082436  0.66125536  0.04383830    -0.09560
C1104       C  0.35831115  0.65554035  0.03146578     0.06630
C1105       C  0.35076639  0.62694079  0.02364808    -0.03330
C1106       C  0.37625668  0.60562356  0.02552148    -0.07780
C1107       C  0.40945297  0.61235892  0.03399541     0.05750
C1108       C  0.41635632  0.63998110  0.04483403    -0.02800
Br1109     Br  0.46095990  0.65050868  0.05681888    -0.02500
H1110       H  0.39703897  0.68299646  0.05023137     0.09660
H1111       H  0.37071363  0.58436367  0.01690192     0.07680
Br1112     Br  0.30813164  0.61623342  0.50486038    -0.02930
C1113       C  0.12200137  0.91590117  0.42382526    -0.09560
C1114       C  0.09073048  0.90438420  0.41516687     0.06630
C1115       C  0.08983194  0.87590409  0.40491380    -0.03330
C1116       C  0.11929547  0.85918641  0.40463730    -0.07780
C1117       C  0.15014640  0.86949466  0.41669125     0.05750
C1118       C  0.15155529  0.89874584  0.42489759    -0.02800
Br1119     Br  0.19181674  0.91530259  0.44215248    -0.02500
H1120       H  0.12313879  0.93751820  0.43284449     0.09660
H1121       H  0.11750088  0.83676911  0.39833311     0.07680
Br1122     Br  0.04882686  0.85691077  0.39756904    -0.02930
C1123       C  0.18592517  0.51963079  0.38422193    -0.09560
C1124       C  0.18263278  0.99618207  0.36402399     0.06630
C1125       C  0.15627716  0.97766047  0.36679087    -0.03330
C1126       C  0.13281995  0.48364740  0.38761282    -0.07780
C1127       C  0.13498289  0.50781291  0.40666547     0.05750
C1128       C  0.16244415  0.52542834  0.40547227    -0.02800
Br1129     Br  0.16689144  0.55913791  0.43028289    -0.02500
H1130       H  0.20528201  0.53466907  0.38195614     0.09660
H1131       H  0.11187116  0.96993479  0.38798312     0.07680
Br1132     Br  0.14993045  0.94470628  0.34092485    -0.02930
C1133       C  0.32420950  0.98412540  0.08919501    -0.09560
C1134       C  0.30611947  0.51053134  0.08977298     0.06630
C1135       C  0.30831136  0.53022230  0.06565688    -0.03330
C1136       C  0.32983888  0.02416988  0.04278318    -0.07780
C1137       C  0.34983614  0.99860326  0.04367812     0.05750
C1138       C  0.34578563  0.97812533  0.06665844    -0.02800
Br1139     Br  0.37015352  0.94182227  0.06893047    -0.02500
H1140       H  0.32288086  0.96856525  0.10740411     0.09660
H1141       H  0.33256037  0.04034074  0.02552593     0.07680
Br1142     Br  0.28480847  0.56673609  0.06506398    -0.02930
C1143       C  0.01659791  0.86930401  0.06183888    -0.09560
C1144       C  0.01354193  0.89749710  0.07308758     0.06630
C1145       C  0.01330488  0.90145490  0.10491889    -0.03330
C1146       C  0.01233414  0.87773434  0.12426070    -0.07780
C1147       C  0.01270336  0.84962552  0.11289021     0.05750
C1148       C  0.01654377  0.84537964  0.08163038    -0.02800
Br1149     Br  0.02034778  0.80748398  0.06507049    -0.02500
H1150       H  0.01783541  0.86587226  0.03755220     0.09660
H1151       H  0.01076619  0.88129068  0.14844065     0.07680
Br1152     Br  0.01593451  0.93863782  0.12369190    -0.02930
C1153       C  0.50001825  0.63288069  0.38562479    -0.09560
C1154       C  0.47381171  0.61427145  0.37926648     0.06630
C1155       C  0.44735807  0.62289621  0.35728674    -0.03330
C1156       C  0.44815480  0.64907239  0.34122911    -0.07780
C1157       C  0.47506953  0.66716951  0.34670561     0.05750
C1158       C  0.50066530  0.65913177  0.36981424    -0.02800
Br1159     Br  0.03700974  0.68355885  0.38079656    -0.02500
H1160       H  0.52019050  0.62691042  0.40287425     0.09660
H1161       H  0.42859379  0.65448522  0.32325995     0.07680
Br1162     Br  0.41107221  0.59840698  0.34651221    -0.02930
C1163       C  0.16018490  0.64616883  0.11915529    -0.09560
C1164       C  0.12636552  0.65233860  0.12472404     0.06630
C1165       C  0.11845631  0.64645164  0.15489139    -0.03330
C1166       C  0.13928091  0.62754359  0.17349498    -0.07780
C1167       C  0.16859337  0.61591514  0.16328425     0.05750
C1168       C  0.18107365  0.62818107  0.13810463    -0.02800
Br1169     Br  0.22457508  0.61853994  0.12629550    -0.02500
H1170       H  0.16936676  0.65138093  0.09767845     0.09660
H1171       H  0.13137424  0.62045871  0.19506499     0.07680
Br1172     Br  0.08410719  0.66510794  0.17498292    -0.02930
C1173       C  0.04555690  0.64839531  0.11386066    -0.09560
C1174       C  0.06515970  0.66721137  0.09876201     0.06630
C1175       C  0.04806922  0.69288733  0.08528245    -0.03330
C1176       C  0.01784235  0.70169020  0.09527169    -0.07780
C1177       C  0.00767340  0.68794653  0.12044064     0.05750
C1178       C  0.01560497  0.65846239  0.12360480    -0.02800
Br1179     Br  0.99167114  0.63385816  0.14785511    -0.02500
H1180       H  0.05480276  0.62692546  0.12055411     0.09660
H1181       H  0.00710929  0.72278276  0.08873027     0.07680
Br1182     Br  0.06104659  0.71895982  0.05445884    -0.02930
C1183       C  0.15795161  0.71696354  0.08851752    -0.09560
C1184       C  0.17474005  0.70629603  0.06465686     0.06630
C1185       C  0.15921782  0.68674226  0.04354367    -0.03330
C1186       C  0.13150744  0.67338153  0.05107130    -0.07780
C1187       C  0.11798421  0.68003700  0.07844376     0.05750
C1188       C  0.12880311  0.70503890  0.09485649    -0.02800
Br1189     Br  0.10938373  0.72086124  0.12971142    -0.02500
H1190       H  0.16792069  0.73433000  0.10260937     0.09660
H1191       H  0.12327714  0.65590841  0.03667236     0.07680
Br1192     Br  0.17260934  0.67636591  0.50390748    -0.02930
C1193       C  0.11278681  0.60176449  0.09378859    -0.09560
C1194       C  0.09874443  0.62719976  0.07845988     0.06630
C1195       C  0.07896972  0.62302138  0.05002973    -0.03330
C1196       C  0.07415321  0.59540512  0.03893072    -0.07780
C1197       C  0.08728429  0.57149389  0.05576153     0.05750
C1198       C  0.10771411  0.57458709  0.08252406    -0.02800
Br1199     Br  0.12469799  0.54195669  0.10710947    -0.02500
H1200       H  0.12556641  0.60149632  0.11629019     0.09660
H1201       H  0.05733784  0.59237728  0.01842971     0.07680
Br1202     Br  0.05448293  0.65226820  0.02539530    -0.02930
C1203       C  0.41750671  0.87526317  0.41965383    -0.09560
C1204       C  0.38783120  0.87373774  0.39970895     0.06630
C1205       C  0.36216132  0.89312538  0.40708208    -0.03330
C1206       C  0.37091355  0.92049644  0.41739062    -0.07780
C1207       C  0.40456092  0.92550056  0.42520250     0.05750
C1208       C  0.42645644  0.90167717  0.43178701    -0.02800
Br1209     Br  0.46951086  0.90466292  0.45397004    -0.02500
H1210       H  0.43640279  0.85818784  0.42158247     0.09660
H1211       H  0.35211583  0.93761770  0.41803426     0.07680
Br1212     Br  0.32273255  0.87877952  0.42132846    -0.02930
C1213       C  0.29849552  0.83871588  0.34623545    -0.09560
C1214       C  0.30390030  0.80945411  0.35153155     0.06630
C1215       C  0.33439718  0.79743988  0.34471241    -0.03330
C1216       C  0.36194795  0.81449811  0.34826014    -0.07780
C1217       C  0.35859615  0.84385476  0.35642298     0.05750
C1218       C  0.32540891  0.85648031  0.35048098    -0.02800
Br1219     Br  0.31218495  0.89669886  0.34657357    -0.02500
H1220       H  0.27353028  0.84811748  0.34575552     0.09660
H1221       H  0.38542518  0.80430896  0.34439525     0.07680
Br1222     Br  0.34025092  0.75716471  0.33687877    -0.02930
C1223       C  0.39190202  0.91432266  0.34827768    -0.09560
C1224       C  0.38773146  0.88534314  0.34104882     0.06630
C1225       C  0.38167836  0.87877789  0.30922893    -0.03330
C1226       C  0.36700180  0.89991066  0.28937751    -0.07780
C1227       C  0.36158799  0.92749979  0.30046644     0.05750
C1228       C  0.37852882  0.93571220  0.32828099    -0.02800
Br1229     Br  0.38364319  0.97511613  0.33999638    -0.02500
H1230       H  0.40536427  0.92023938  0.36926776     0.09660
H1231       H  0.35718284  0.89415923  0.26638974     0.07680
Br1232     Br  0.39040466  0.84211639  0.29120955    -0.02930
C1233       C  0.45058183  0.86239712  0.35590320    -0.09560
C1234       C  0.42399643  0.84667454  0.36557226     0.06630
C1235       C  0.43336756  0.81917024  0.37845715    -0.03330
C1236       C  0.46096821  0.80469916  0.36810735    -0.07780
C1237       C  0.47731337  0.81808025  0.34550176     0.05750
C1238       C  0.47808566  0.84798786  0.34631368    -0.02800
Br1239     Br  0.50794932  0.86946094  0.32449291    -0.02500
H1240       H  0.44911814  0.88545769  0.35310504     0.09660
H1241       H  0.46498599  0.78190525  0.37272043     0.07680
Br1242     Br  0.40970992  0.80029816  0.40825740    -0.02930
C1243       C  0.38946524  0.86194865  0.86630786    -0.02890
C1244       C  0.10121001  0.65704517  0.59508169    -0.02890
C1245       C  0.06054058  0.91896505  0.92557688     0.42050
N1246       N  0.02732318  0.95625607  0.92949896     0.00940
C1247       C  0.03618170  0.54286139  0.55550214    -0.06930
H1248       H  0.46624938  0.95041530  0.56832956     0.06430
C1249       C  0.38076607  0.00655951  0.99311093    -0.07290
Co1250     Co  0.04570456  0.98024040  0.99069704     0.74180
N1251       N  0.49569576  0.96680227  0.53439571    -0.26460
Co1252     Co  0.47828140  0.00933246  0.52682480     0.74070
C1253       C  0.37809174  0.99524826  0.02415224     0.42150
N1254       N  0.43232073  0.99561771  0.92707832     0.00560
N1255       N  0.42981089  0.99747365  0.51595417     0.00660
N1256       N  0.07875382  0.52558893  0.53011353    -0.47310
H1257       H  0.07710280  0.91915371  0.97663019     0.06420
N1258       N  0.02132982  0.95581553  0.52130541     0.00950
N1259       N  0.46046617  0.55233963  0.51792947     0.00690
C1260       C  0.43567963  0.59379266  0.52229389     0.42290
N1261       N  0.45761691  0.98366179  0.91403205    -0.25920
C1262       C  0.10316060  0.50545172  0.95630881    -0.06840
N1263       N  0.04056542  0.93901973  0.90931784    -0.47030
N1264       N  0.45261733  0.57192870  0.53830402    -0.47250
C1265       C  0.10653280  0.51531076  0.92486377     0.42070
N1266       N  0.05135286  0.51166607  0.52299194     0.00940
N1267       N  0.48751840  0.54100343  0.91181744    -0.25940
N1268       N  0.03970676  0.94958489  0.95768751    -0.26430
N1269       N  0.46214778  0.55204531  0.92517943     0.00580
H1270       H  0.51750734  0.55840031  0.87854678     0.06470
H1271       H  0.41617091  0.59465906  0.97156489     0.06500
N1272       N  0.02603388  0.52189137  0.53692674    -0.26480
N1273       N  0.41365795  0.00701096  0.99008770    -0.26100
N1274       N  0.05444308  0.51179889  0.93168600     0.00940
C1275       C  0.00904690  0.92246239  0.55175259     0.42340
C1276       C  0.44970746  0.95702018  0.90585098    -0.07350
N1277       N  0.44766609  0.55955471  0.98996672    -0.26090
H1278       H  0.36133261  0.01610293  0.97710452     0.06490
N1279       N  0.03024853  0.92936516  0.53121697    -0.47320
H1280       H  0.46677605  0.94082856  0.89810008     0.06470
C1281       C  0.47465532  0.58605450  0.89552370     0.42170
C1282       C  0.05949906  0.92606239  0.95758108    -0.06840
Co1283     Co  0.00611108  0.49849761  0.92071231     0.73820
N1284       N  0.40804432  0.97789737  0.92951611    -0.47030
C1285       C  0.07083808  0.54504899  0.55091416     0.42440
N1286       N  0.07507781  0.51797429  0.91117667    -0.47020
Co1287     Co  0.43882238  0.52880200  0.95718297     0.73890
C1288       C  0.43274080  0.58548156  0.99026620    -0.07350
C1289       C  0.48600639  0.94720579  0.55367978    -0.06910
N1290       N  0.07023407  0.50377774  0.95841373    -0.26440
N1291       N  0.40972078  0.99074109  0.53671225    -0.47200
H1292       H  0.52054481  0.55648497  0.56848687     0.06450
C1293       C  0.49736191  0.56109488  0.89283923    -0.07330
Cl1294     Cl  0.49233176  0.50425481  0.97381821    -0.50330
C1295       C  0.41755419  0.95308004  0.91730781     0.42200
H1296       H  0.12243010  0.49654544  0.97290605     0.06410
N1297       N  0.45358441  0.57875650  0.91595873    -0.47040
C1298       C  0.35431029  0.79242336  0.53400130     0.42050
N1299       N  0.33137400  0.77829445  0.98999992     0.00940
C1300       C  0.16802770  0.82171206  0.94385878    -0.06930
H1301       H  0.19781317  0.80716539  0.56022322     0.06430
C1302       C  0.22802059  0.70603737  0.54110609    -0.07270
Co1303     Co  0.26938607  0.81552384  0.97143732     0.74180
N1304       N  0.22518598  0.80806011  0.52056880    -0.26460
Co1305     Co  0.20387456  0.77860065  0.98916540     0.74070
C1306       C  0.20416509  0.72069860  0.55881678     0.42150
N1307       N  0.29291968  0.70276394  0.99810720     0.00560
N1308       N  0.21232085  0.74721351  0.52133434     0.00660
N1309       N  0.20983716  0.84958521  0.93309090    -0.47310
H1310       H  0.32014871  0.83241998  0.53304060     0.06420
N1311       N  0.25035912  0.82295822  0.51358487     0.00950
N1312       N  0.18377918  0.74958232  0.95705964     0.00690
C1313       C  0.15831920  0.73401118  0.91521384     0.42290
N1314       N  0.31833284  0.71689397  0.99040223    -0.25920
C1315       C  0.27780236  0.81796616  0.90238476    -0.06840
N1316       N  0.35394956  0.77102839  0.51318482    -0.47030
N1317       N  0.15949124  0.75597750  0.93520743    -0.47250
C1318       C  0.29143690  0.79909138  0.87962928     0.42070
N1319       N  0.22121729  0.82658557  0.94979392     0.00940
N1320       N  0.28957121  0.71801734  0.92610615    -0.25940
N1321       N  0.31567852  0.80305520  0.99487373    -0.26430
N1322       N  0.26419253  0.70460128  0.93501543     0.00580
H1323       H  0.31603342  0.71232460  0.88563739     0.06470
H1324       H  0.19230269  0.69365357  0.91601482     0.06500
N1325       N  0.19687621  0.81075924  0.95685945    -0.26480
N1326       N  0.22892241  0.72307815  0.01692632    -0.26100
N1327       N  0.30200146  0.78046524  0.92450145     0.00940
C1328       C  0.24061036  0.83837310  0.55831615     0.42340
C1329       C  0.34637591  0.70472371  0.00420026    -0.07350
N1330       N  0.19939003  0.72482510  0.95233810    -0.26090
H1331       H  0.23688475  0.68379356  0.54248169     0.06490
N1332       N  0.26019160  0.84137702  0.53534893    -0.47320
H1333       H  0.37122905  0.71054619  0.00037597     0.06470
C1334       C  0.27146206  0.68377750  0.89225759     0.42170
C1335       C  0.32924348  0.81374247  0.52153524    -0.06840
Co1336     Co  0.31159430  0.74891512  0.95726089     0.73820
N1337       N  0.30225977  0.68024578  0.01598525    -0.47030
C1338       C  0.17624280  0.84732341  0.92784717     0.42440
N1339       N  0.30606778  0.77640163  0.89536782    -0.47020
Co1340     Co  0.24579129  0.71323971  0.97601694     0.73890
C1341       C  0.18423603  0.71304506  0.92696418    -0.07350
C1342       C  0.21731160  0.81605382  0.54847334    -0.06910
N1343       N  0.28578252  0.80488880  0.92938183    -0.26440
N1344       N  0.19794342  0.74701909  0.54674012    -0.47200
H1345       H  0.14386767  0.81426181  0.94789082     0.06450
C1346       C  0.29604739  0.70649142  0.89872810    -0.07330
Cl1347     Cl  0.25767802  0.76411737  0.97335216    -0.50330
C1348       C  0.33581380  0.68038162  0.52127077     0.42200
H1349       H  0.26332336  0.83791867  0.89890613     0.06410
N1350       N  0.25315403  0.68449464  0.91602872    -0.47040
C1351       C  0.09707115  0.73767461  0.79063310     0.42050
N1352       N  0.05763478  0.72666271  0.75680101     0.00940
C1353       C  0.48061373  0.82929218  0.65542291    -0.06930
H1354       H  0.00943052  0.86973472  0.74770670     0.06430
C1355       C  0.45241078  0.78118336  0.80618502    -0.07290
Co1356     Co  0.04450954  0.77283142  0.70778469     0.74180
N1357       N  0.02128907  0.82565847  0.73761302    -0.26460
Co1358     Co  0.47489101  0.80926716  0.72187373     0.74070
C1359       C  0.47137902  0.80614160  0.81475569     0.42150
N1360       N  0.46703936  0.71991223  0.78616899     0.00560
N1361       N  0.46204905  0.80501318  0.76589197     0.00660
N1362       N  0.02857740  0.80620001  0.64620627    -0.47310
H1363       H  0.10750167  0.77840297  0.76401997     0.06420
N1364       N  0.04898403  0.81198338  0.73158734     0.00950
N1365       N  0.42998051  0.79375410  0.70312531     0.00690
C1366       C  0.39374333  0.78420213  0.66519392     0.42290
N1367       N  0.49662718  0.70861660  0.78233195    -0.25920
C1368       C  0.02883583  0.73219010  0.65295447    -0.06840
N1369       N  0.07314345  0.71891309  0.78369835    -0.47030
N1370       N  0.41639875  0.80292687  0.67597550    -0.47250
C1371       C  0.01237806  0.70476858  0.64850783     0.42070
N1372       N  0.01793020  0.79705048  0.67213856     0.00940
N1373       N  0.46737625  0.69270624  0.72300299    -0.25940
N1374       N  0.06946089  0.75009980  0.74551989    -0.26430
N1375       N  0.43931901  0.70758259  0.72467242     0.00580
H1376       H  0.47835760  0.64751483  0.71711378     0.06470
H1377       H  0.38299986  0.74110369  0.68749073     0.06500
N1378       N  0.49049944  0.81098263  0.67830945    -0.26480
N1379       N  0.44879310  0.78157218  0.77557152    -0.26100
N1380       N  0.02525480  0.71146123  0.69620176     0.00940
C1381       C  0.06358235  0.85585250  0.74111656     0.42340
C1382       C  0.00673812  0.69064638  0.80551343    -0.07350
N1383       N  0.41819400  0.76918290  0.71146295    -0.26090
H1384       H  0.44685944  0.76354717  0.82057519     0.06490
N1385       N  0.07453889  0.82926929  0.73291367    -0.47320
H1386       H  0.02779076  0.67556586  0.80596198     0.06470
C1387       C  0.42409699  0.66447104  0.71491144     0.42170
C1388       C  0.09473778  0.75855094  0.76542856    -0.06840
Co1389     Co  0.01303052  0.70970681  0.73958508     0.73820
N1390       N  0.45520470  0.70893555  0.81081699    -0.47030
C1391       C  0.00563346  0.82608181  0.63383324     0.42440
N1392       N  0.01190670  0.69315839  0.67622940    -0.47020
Co1393     Co  0.44168483  0.74515280  0.74944382     0.73890
C1394       C  0.39494337  0.76148627  0.68885279    -0.07350
C1395       C  0.02807979  0.85305731  0.74468944    -0.06910
N1396       N  0.03533976  0.73484815  0.68340187    -0.26440
N1397       N  0.47548331  0.82037857  0.78876262    -0.47200
H1398       H  0.46086878  0.84558531  0.65578720     0.06450
C1399       C  0.46031004  0.66531364  0.71638619    -0.07330
Cl1400     Cl  0.49365395  0.75937351  0.72985387    -0.50330
C1401       C  0.47953829  0.69098538  0.82482278     0.42200
H1402       H  0.03155442  0.74874080  0.63618343     0.06410
N1403       N  0.41305415  0.69148531  0.72057290    -0.47040
C1404       C  0.19933453  0.99572558  0.83512362     0.42050
N1405       N  0.23362508  0.00533608  0.80178649     0.00940
C1406       C  0.19336601  0.56343734  0.65912429    -0.06930
H1407       H  0.16407192  0.94556536  0.67578586     0.06430
C1408       C  0.28172652  0.92931871  0.68070164    -0.07290
Co1409     Co  0.19475402  0.53053222  0.74648590     0.74180
N1410       N  0.17835919  0.98412432  0.70035452    -0.26460
Co1411     Co  0.21698952  0.00039369  0.67704757     0.74070
C1412       C  0.25387810  0.91752540  0.66081714     0.42150
N1413       N  0.30589602  0.96921940  0.75095202     0.00560
N1414       N  0.23985181  0.95970922  0.67675527     0.00660
N1415       N  0.17868363  0.58007051  0.70448417    -0.47310
H1416       H  0.15432519  0.00645309  0.80079677     0.06420
N1417       N  0.16986581  0.99523870  0.72630748     0.00950
N1418       N  0.25739849  0.51448795  0.65378464     0.00690
C1419       C  0.29138614  0.51882718  0.61867647     0.42290
N1420       N  0.29721056  0.98020526  0.77690393    -0.25920
C1421       C  0.21258613  0.59274743  0.77505298    -0.06840
N1422       N  0.23212419  0.99884040  0.83134935    -0.47030
N1423       N  0.25868746  0.51775645  0.62363179    -0.47250
C1424       C  0.24290897  0.60472155  0.79121756     0.42070
N1425       N  0.18791026  0.55264432  0.70604648     0.00940
N1426       N  0.31270394  0.53619885  0.75592286    -0.25940
N1427       N  0.20359483  0.00863208  0.78723308    -0.26430
N1428       N  0.32074052  0.52571030  0.72959796     0.00580
H1429       H  0.32932718  0.57223196  0.78299613     0.06470
H1430       H  0.33631459  0.50916061  0.65341336     0.06500
N1431       N  0.19669350  0.54217792  0.67992659    -0.26480
N1432       N  0.27078572  0.95558654  0.68903500    -0.26100
N1433       N  0.25230569  0.56063021  0.77878551     0.00940
C1434       C  0.14088594  0.95719590  0.72009617     0.42340
C1435       C  0.31325442  0.96557222  0.80028743    -0.07350
N1436       N  0.28747001  0.51142402  0.66825023    -0.26090
H1437       H  0.30675900  0.92072994  0.68619995     0.06490
N1438       N  0.14789310  0.97962607  0.73895064    -0.47320
H1439       H  0.31336074  0.97133320  0.82415956     0.06470
C1440       C  0.35132381  0.56238090  0.73747953     0.42170
C1441       C  0.18081012  0.00248336  0.80588161    -0.06840
Co1442     Co  0.27430589  0.52018699  0.77887512     0.73820
N1443       N  0.32828312  0.94794138  0.75527308    -0.47030
C1444       C  0.18216776  0.58856430  0.67590630     0.42440
N1445       N  0.26575628  0.58293359  0.79304247    -0.47020
Co1446     Co  0.29653554  0.99040983  0.70979856     0.73890
C1447       C  0.31009629  0.51460802  0.64849310    -0.07350
C1448       C  0.16125985  0.96011940  0.69460200    -0.06910
N1449       N  0.22115898  0.56540423  0.76766259    -0.26440
N1450       N  0.22909690  0.93789427  0.65978578    -0.47200
H1451       H  0.19919027  0.56164702  0.63566558     0.06450
C1452       C  0.33103712  0.55901332  0.76296714    -0.07330
Cl1453     Cl  0.24564658  0.01019622  0.72807017    -0.50330
C1454       C  0.33441138  0.94503654  0.78569285     0.42200
H1455       H  0.18802605  0.60279116  0.77069115     0.06410
N1456       N  0.34339992  0.54090992  0.71764789    -0.47040
C1457       C  0.41042877  0.61346969  0.70349840    -0.09560
C1458       C  0.40525775  0.63852872  0.72043797     0.06630
C1459       C  0.38325828  0.63784219  0.74344850    -0.03330
C1460       C  0.36643652  0.61291137  0.74838953    -0.07780
C1461       C  0.37089268  0.58789478  0.73114665     0.05750
C1462       C  0.39346293  0.58834894  0.70849306    -0.02800
Br1463     Br  0.40330857  0.55540998  0.68426339    -0.02500
H1464       H  0.42772199  0.61345262  0.68618719     0.09660
H1465       H  0.34960007  0.61341727  0.76601672     0.07680
Br1466     Br  0.37637715  0.66927421  0.77076612    -0.02930
C1467       C  0.08675918  0.93245564  0.71838228    -0.09560
C1468       C  0.12100006  0.93199242  0.72732073     0.06630
C1469       C  0.13584480  0.90689149  0.74170690    -0.03330
C1470       C  0.11673766  0.88276655  0.74623089    -0.07780
C1471       C  0.08230967  0.88293858  0.73711535     0.05750
C1472       C  0.06745024  0.90855412  0.72307344    -0.02800
Br1473     Br  0.02162700  0.91241323  0.70718380    -0.02500
H1474       H  0.07497580  0.95143520  0.70700977     0.09660
H1475       H  0.12894825  0.86368826  0.75699899     0.07680
Br1476     Br  0.18230593  0.90474714  0.75560806    -0.02930
C1477       C  0.22128825  0.88324290  0.62788676    -0.09560
C1478       C  0.25279031  0.89325302  0.63834331     0.06630
C1479       C  0.28045661  0.88260018  0.62380343    -0.03330
C1480       C  0.27574609  0.86393349  0.59871772    -0.07780
C1481       C  0.24400271  0.85527116  0.58732181     0.05750
C1482       C  0.21660773  0.86469468  0.60277019    -0.02800
Br1483     Br  0.17156427  0.85616995  0.58905903    -0.02500
H1484       H  0.19963691  0.89103418  0.63849480     0.09660
H1485       H  0.29715230  0.85674527  0.58739653     0.07680
Br1486     Br  0.32507944  0.89402254  0.63440624    -0.02930
C1487       C  0.23477118  0.62267878  0.84286040    -0.09560
C1488       C  0.24582238  0.62803428  0.81433658     0.06630
C1489       C  0.26621302  0.65163257  0.81141916    -0.03330
C1490       C  0.27466031  0.66962275  0.83671829    -0.07780
C1491       C  0.26385216  0.66401564  0.86560003     0.05750
C1492       C  0.24387434  0.63977813  0.86831381    -0.02800
Br1493     Br  0.23029203  0.62614069  0.90641751    -0.02500
H1494       H  0.22059881  0.60378508  0.84588047     0.09660
H1495       H  0.28982135  0.68788489  0.83379658     0.07680
Br1496     Br  0.28337420  0.65964265  0.77328651    -0.02930
C1497       C  0.14742119  0.73594488  0.82779854    -0.09560
C1498       C  0.11309838  0.74082340  0.82209577     0.06630
C1499       C  0.09414494  0.74589255  0.84698417    -0.03330
C1500       C  0.10936965  0.74393498  0.87712830    -0.07780
C1501       C  0.14346760  0.73713734  0.88298853     0.05750
C1502       C  0.16276926  0.73447433  0.85787161    -0.02800
Br1503     Br  0.21028383  0.73116674  0.86264225    -0.02500
H1504       H  0.16229895  0.73280467  0.80878640     0.09660
H1505       H  0.09443156  0.74732164  0.89605453     0.07680
Br1506     Br  0.04762921  0.75645111  0.84086476    -0.02930
C1507       C  0.34043386  0.78500416  0.58804586    -0.09560
C1508       C  0.36462302  0.78783812  0.56735830     0.06630
C1509       C  0.39824994  0.78713129  0.57904732    -0.03330
C1510       C  0.40722872  0.78481270  0.61080153    -0.07780
C1511       C  0.38310524  0.78245830  0.63163830     0.05750
C1512       C  0.34945343  0.78203825  0.61984781    -0.02800
Br1513     Br  0.31498618  0.77935611  0.64650024    -0.02500
H1514       H  0.31437721  0.78542341  0.57946370     0.09660
H1515       H  0.43325679  0.78537819  0.61931880     0.07680
Br1516     Br  0.43247848  0.79102312  0.55239314    -0.02930
C1517       C  0.39082436  0.66125534  0.54383834    -0.09560
C1518       C  0.35831115  0.65554033  0.53146581     0.06630
C1519       C  0.35076638  0.62694077  0.52364809    -0.03330
C1520       C  0.37625667  0.60562354  0.52552149    -0.07780
C1521       C  0.40945296  0.61235890  0.53399543     0.05750
C1522       C  0.41635631  0.63998107  0.54483406    -0.02800
Br1523     Br  0.46095989  0.65050865  0.55681892    -0.02500
H1524       H  0.39703897  0.68299644  0.55023142     0.09660
H1525       H  0.37071362  0.58436366  0.51690191     0.07680
Br1526     Br  0.30813165  0.61623342  0.00486037    -0.02930
C1527       C  0.12200133  0.91590115  0.92382525    -0.09560
C1528       C  0.09073043  0.90438419  0.91516689     0.06630
C1529       C  0.08983187  0.87590408  0.90491383    -0.03330
C1530       C  0.11929539  0.85918639  0.90463731    -0.07780
C1531       C  0.15014633  0.86949463  0.91669124     0.05750
C1532       C  0.15155524  0.89874581  0.92489756    -0.02800
Br1533     Br  0.19181670  0.91530255  0.94215242    -0.02500
H1534       H  0.12313876  0.93751818  0.93284448     0.09660
H1535       H  0.11750078  0.83676908  0.89833313     0.07680
Br1536     Br  0.04882678  0.85691078  0.89756911    -0.02930
C1537       C  0.18592511  0.51963084  0.88422191    -0.09560
C1538       C  0.18263282  0.99618211  0.86402405     0.06630
C1539       C  0.15627721  0.97766050  0.86679093    -0.03330
C1540       C  0.13281993  0.48364742  0.88761282    -0.07780
C1541       C  0.13498285  0.50781293  0.90666546     0.05750
C1542       C  0.16244409  0.52542838  0.90547225    -0.02800
Br1543     Br  0.16689135  0.55913797  0.93028286    -0.02500
H1544       H  0.20528194  0.53466914  0.88195611     0.09660
H1545       H  0.11187120  0.96993481  0.88798317     0.07680
Br1546     Br  0.14993053  0.94470630  0.84092493    -0.02930
C1547       C  0.32420959  0.98412532  0.58919506    -0.09560
C1548       C  0.30611952  0.51053132  0.58977299     0.06630
C1549       C  0.30831139  0.53022229  0.56565690    -0.03330
C1550       C  0.32983891  0.02416981  0.54278321    -0.07780
C1551       C  0.34983617  0.99860319  0.54367813     0.05750
C1552       C  0.34578569  0.97812526  0.56665846    -0.02800
Br1553     Br  0.37015359  0.94182221  0.56893047    -0.02500
H1554       H  0.32288096  0.96856518  0.60740415     0.09660
H1555       H  0.33256037  0.04034067  0.52552595     0.07680
Br1556     Br  0.28480850  0.56673607  0.56506400    -0.02930
C1557       C  0.01659794  0.86930399  0.56183888    -0.09560
C1558       C  0.01354194  0.89749708  0.57308757     0.06630
C1559       C  0.01330488  0.90145488  0.60491888    -0.03330
C1560       C  0.01233413  0.87773432  0.62426069    -0.07780
C1561       C  0.01270337  0.84962550  0.61289020     0.05750
C1562       C  0.01654380  0.84537962  0.58163038    -0.02800
Br1563     Br  0.02034783  0.80748396  0.56507049    -0.02500
H1564       H  0.01783545  0.86587224  0.53755220     0.09660
H1565       H  0.01076617  0.88129067  0.64844063     0.07680
Br1566     Br  0.01593449  0.93863781  0.62369189    -0.02930
C1567       C  0.50001822  0.63288067  0.88562480    -0.09560
C1568       C  0.47381169  0.61427143  0.87926647     0.06630
C1569       C  0.44735807  0.62289618  0.85728671    -0.03330
C1570       C  0.44815480  0.64907236  0.84122908    -0.07780
C1571       C  0.47506951  0.66716949  0.84670560     0.05750
C1572       C  0.50066527  0.65913175  0.86981424    -0.02800
Br1573     Br  0.03700969  0.68355881  0.88079657    -0.02500
H1574       H  0.52019046  0.62691041  0.90287427     0.09660
H1575       H  0.42859380  0.65448518  0.82325990     0.07680
Br1576     Br  0.41107222  0.59840694  0.84651215    -0.02930
C1577       C  0.16018491  0.64616884  0.61915527    -0.09560
C1578       C  0.12636553  0.65233860  0.62472401     0.06630
C1579       C  0.11845633  0.64645164  0.65489136    -0.03330
C1580       C  0.13928094  0.62754359  0.67349496    -0.07780
C1581       C  0.16859339  0.61591514  0.66328422     0.05750
C1582       C  0.18107367  0.62818107  0.63810460    -0.02800
Br1583     Br  0.22457509  0.61853994  0.62629546    -0.02500
H1584       H  0.16936677  0.65138094  0.59767842     0.09660
H1585       H  0.13137427  0.62045871  0.69506496     0.07680
Br1586     Br  0.08410720  0.66510792  0.67498290    -0.02930
C1587       C  0.04555691  0.64839526  0.61386065    -0.09560
C1588       C  0.06515970  0.66721134  0.59876198     0.06630
C1589       C  0.04806920  0.69288728  0.58528243    -0.03330
C1590       C  0.01784233  0.70169015  0.59527167    -0.07780
C1591       C  0.00767340  0.68794648  0.62044063     0.05750
C1592       C  0.01560498  0.65846234  0.62360480    -0.02800
Br1593     Br  0.99167118  0.63385810  0.64785512    -0.02500
H1594       H  0.05480278  0.62692543  0.62055410     0.09660
H1595       H  0.00710926  0.72278271  0.58873026     0.07680
Br1596     Br  0.06104654  0.71895978  0.55445880    -0.02930
C1597       C  0.15795156  0.71696356  0.58851750    -0.09560
C1598       C  0.17474002  0.70629606  0.56465685     0.06630
C1599       C  0.15921780  0.68674228  0.54354365    -0.03330
C1600       C  0.13150743  0.67338154  0.55107128    -0.07780
C1601       C  0.11798419  0.68003699  0.57844374     0.05750
C1602       C  0.12880307  0.70503891  0.59485647    -0.02800
Br1603     Br  0.10938368  0.72086123  0.62971139    -0.02500
H1604       H  0.16792063  0.73433002  0.60260936     0.09660
H1605       H  0.12327715  0.65590841  0.53667234     0.07680
Br1606     Br  0.17260936  0.67636586  0.00390750    -0.02930
C1607       C  0.11278684  0.60176448  0.59378858    -0.09560
C1608       C  0.09874445  0.62719974  0.57845986     0.06630
C1609       C  0.07896975  0.62302135  0.55002970    -0.03330
C1610       C  0.07415325  0.59540509  0.53893070    -0.07780
C1611       C  0.08728433  0.57149386  0.55576153     0.05750
C1612       C  0.10771415  0.57458707  0.58252405    -0.02800
Br1613     Br  0.12469804  0.54195668  0.60710947    -0.02500
H1614       H  0.12556644  0.60149632  0.61629018     0.09660
H1615       H  0.05733789  0.59237724  0.51842969     0.07680
Br1616     Br  0.05448294  0.65226815  0.52539528    -0.02930
C1617       C  0.41750687  0.87526316  0.91965396    -0.09560
C1618       C  0.38783135  0.87373772  0.89970911     0.06630
C1619       C  0.36216144  0.89312531  0.90708229    -0.03330
C1620       C  0.37091364  0.92049637  0.91739087    -0.07780
C1621       C  0.40456101  0.92550052  0.92520272     0.05750
C1622       C  0.42645656  0.90167714  0.93178720    -0.02800
Br1623     Br  0.46951097  0.90466292  0.95397023    -0.02500
H1624       H  0.43640297  0.85818785  0.92158256     0.09660
H1625       H  0.35211590  0.93761760  0.91803453     0.07680
Br1626     Br  0.32273270  0.87877938  0.92132865    -0.02930
C1627       C  0.29849561  0.83871596  0.84623552    -0.09560
C1628       C  0.30390035  0.80945419  0.85153158     0.06630
C1629       C  0.33439724  0.79743995  0.84471245    -0.03330
C1630       C  0.36194803  0.81449816  0.84826023    -0.07780
C1631       C  0.35859625  0.84385480  0.85642311     0.05750
C1632       C  0.32540901  0.85648038  0.85048111    -0.02800
Br1633     Br  0.31218508  0.89669893  0.84657379    -0.02500
H1634       H  0.27353037  0.84811758  0.84575559     0.09660
H1635       H  0.38542525  0.80430900  0.84439535     0.07680
Br1636     Br  0.34025095  0.75716478  0.83687876    -0.02930
C1637       C  0.39190211  0.91432270  0.84827788    -0.09560
C1638       C  0.38773157  0.88534318  0.84104899     0.06630
C1639       C  0.38167849  0.87877796  0.80922908    -0.03330
C1640       C  0.36700193  0.89991074  0.78937768    -0.07780
C1641       C  0.36158811  0.92749985  0.80046663     0.05750
C1642       C  0.37852891  0.93571224  0.82828120    -0.02800
Br1643     Br  0.38364324  0.97511617  0.83999663    -0.02500
H1644       H  0.40536433  0.92023940  0.86926796     0.09660
H1645       H  0.35718300  0.89415931  0.76638989     0.07680
Br1646     Br  0.39040478  0.84211647  0.79120968    -0.02930
C1647       C  0.45058193  0.86239711  0.85590328    -0.09560
C1648       C  0.42399653  0.84667454  0.86557237     0.06630
C1649       C  0.43336765  0.81917023  0.87845722    -0.03330
C1650       C  0.46096826  0.80469913  0.86810737    -0.07780
C1651       C  0.47731340  0.81808023  0.84550177     0.05750
C1652       C  0.47808572  0.84798784  0.84631371    -0.02800
Br1653     Br  0.50794937  0.86946091  0.82449292    -0.02500
H1654       H  0.44911826  0.88545769  0.85310514     0.09660
H1655       H  0.46498602  0.78190522  0.87272043     0.07680
Br1656     Br  0.40971003  0.80029815  0.90825748    -0.02930
C1657       C  0.88946519  0.36194864  0.36630776    -0.02890
C1658       C  0.60120998  0.15704519  0.09508169    -0.02890
C1659       C  0.56054062  0.41896505  0.42557686     0.42050
N1660       N  0.52732321  0.45625607  0.42949894     0.00940
C1661       C  0.53618168  0.04286141  0.05550214    -0.06930
H1662       H  0.96624938  0.45041530  0.06832958     0.06430
C1663       C  0.88076610  0.50655947  0.49311092    -0.07290
Co1664     Co  0.54570459  0.48024041  0.49069701     0.74180
N1665       N  0.99569576  0.46680228  0.03439573    -0.26460
Co1666     Co  0.97828139  0.50933247  0.02682481     0.74070
C1667       C  0.87809178  0.49524820  0.52415222     0.42150
N1668       N  0.93232077  0.49561773  0.42707829     0.00560
N1669       N  0.92981088  0.49747365  0.01595418     0.00660
N1670       N  0.57875380  0.02558894  0.03011353    -0.47310
H1671       H  0.57710285  0.41915373  0.47663018     0.06420
N1672       N  0.52132985  0.45581556  0.02130545     0.00950
N1673       N  0.96046617  0.05233964  0.01792949     0.00690
C1674       C  0.93567965  0.09379267  0.02229391     0.42290
N1675       N  0.95761695  0.48366181  0.41403201    -0.25920
C1676       C  0.60316061  0.00545168  0.45630880    -0.06840
N1677       N  0.54056545  0.43901973  0.40931782    -0.47030
N1678       N  0.95261733  0.07192871  0.03830404    -0.47250
C1679       C  0.60653282  0.01531072  0.42486376     0.42070
N1680       N  0.55135283  0.01166609  0.02299194     0.00940
N1681       N  0.98751843  0.04100344  0.41181744    -0.25940
N1682       N  0.53970680  0.44958490  0.45768750    -0.26430
N1683       N  0.96214781  0.05204532  0.42517943     0.00580
H1684       H  0.01750738  0.05840033  0.37854679     0.06470
H1685       H  0.91617093  0.09465905  0.47156490     0.06500
N1686       N  0.52603385  0.02189139  0.03692674    -0.26480
N1687       N  0.91365798  0.50701092  0.49008769    -0.26100
N1688       N  0.55444309  0.01179887  0.43168599     0.00940
C1689       C  0.50904693  0.42246243  0.05175262     0.42340
C1690       C  0.94970748  0.45702022  0.40585087    -0.07350
N1691       N  0.94766610  0.05955470  0.48996672    -0.26090
H1692       H  0.86133264  0.51610290  0.47710452     0.06490
N1693       N  0.53024856  0.42936520  0.03121700    -0.47320
H1694       H  0.96677605  0.44082861  0.39809994     0.06470
C1695       C  0.97465537  0.08605452  0.39552372     0.42170
C1696       C  0.55949910  0.42606240  0.45758106    -0.06840
Co1697     Co  0.50611108  0.99849761  0.42071230     0.73820
N1698       N  0.90804434  0.47789740  0.42951602    -0.47030
C1699       C  0.57083806  0.04504901  0.05091416     0.42440
N1700       N  0.57507782  0.01797427  0.41117666    -0.47020
Co1701     Co  0.93882239  0.02880200  0.45718295     0.73890
C1702       C  0.93274082  0.08548155  0.49026621    -0.07350
C1703       C  0.98600639  0.44720579  0.05367979    -0.06910
N1704       N  0.57023408  0.00377771  0.45841372    -0.26440
N1705       N  0.90972076  0.49074109  0.03671225    -0.47200
H1706       H  0.02054480  0.05648494  0.06848692     0.06450
C1707       C  0.99736195  0.06109490  0.39283924    -0.07330
Cl1708     Cl  0.99233176  0.00425479  0.47381819    -0.50330
C1709       C  0.91755419  0.45308009  0.41730766     0.42200
H1710       H  0.62243011  0.99654539  0.47290603     0.06410
N1711       N  0.95358445  0.07875651  0.41595874    -0.47040
C1712       C  0.85431025  0.29242333  0.03400130     0.42050
N1713       N  0.83137403  0.27829443  0.48999993     0.00940
C1714       C  0.66802773  0.32171207  0.44385878    -0.06930
H1715       H  0.69781309  0.30716537  0.06022319     0.06430
C1716       C  0.72802059  0.20603734  0.04110609    -0.07270
Co1717     Co  0.76938610  0.31552382  0.47143733     0.74180
N1718       N  0.72518593  0.30806007  0.02056879    -0.26460
Co1719     Co  0.70387459  0.27860065  0.48916541     0.74070
C1720       C  0.70416509  0.22069857  0.05881679     0.42150
N1721       N  0.79291968  0.20276392  0.49810722     0.00560
N1722       N  0.71232083  0.24721347  0.02133433     0.00660
N1723       N  0.70983721  0.34958521  0.43309091    -0.47310
H1724       H  0.82014865  0.33241995  0.03304060     0.06420
N1725       N  0.75035907  0.32295818  0.01358485     0.00950
N1726       N  0.68377920  0.24958232  0.45705965     0.00690
C1727       C  0.65831922  0.23401119  0.41521383     0.42290
N1728       N  0.81833285  0.21689395  0.49040225    -0.25920
C1729       C  0.77780240  0.31796613  0.40238476    -0.06840
N1730       N  0.85394952  0.27102837  0.01318481    -0.47030
N1731       N  0.65949126  0.25597750  0.43520743    -0.47250
C1732       C  0.79143692  0.29909134  0.37962929     0.42070
N1733       N  0.72121733  0.32658557  0.44979392     0.00940
N1734       N  0.78957123  0.21801732  0.42610617    -0.25940
N1735       N  0.81567856  0.30305518  0.49487373    -0.26430
N1736       N  0.76419254  0.20460126  0.43501544     0.00580
H1737       H  0.81603345  0.21232456  0.38563741     0.06470
H1738       H  0.69230270  0.19365357  0.41601483     0.06500
N1739       N  0.69687625  0.31075924  0.45685946    -0.26480
N1740       N  0.72892242  0.22307815  0.51692633    -0.26100
N1741       N  0.80200149  0.28046521  0.42450146     0.00940
C1742       C  0.74061028  0.33837308  0.05831612     0.42340
C1743       C  0.84637592  0.20472368  0.50420028    -0.07350
N1744       N  0.69939005  0.22482510  0.45233810    -0.26090
H1745       H  0.73688476  0.18379353  0.04248169     0.06490
N1746       N  0.76019153  0.34137699  0.03534891    -0.47320
H1747       H  0.87122906  0.21054616  0.50037598     0.06470
C1748       C  0.77146208  0.18377747  0.39225761     0.42170
C1749       C  0.82924344  0.31374244  0.02153523    -0.06840
Co1750     Co  0.81159432  0.24891509  0.45726090     0.73820
N1751       N  0.80225977  0.18024576  0.51598526    -0.47030
C1752       C  0.67624284  0.34732341  0.42784717     0.42440
N1753       N  0.80606780  0.27640159  0.39536783    -0.47020
Co1754     Co  0.74579130  0.21323970  0.47601695     0.73890
C1755       C  0.68423605  0.21304507  0.42696418    -0.07350
C1756       C  0.71731154  0.31605379  0.04847331    -0.06910
N1757       N  0.78578255  0.30488878  0.42938184    -0.26440
N1758       N  0.69794342  0.24701906  0.04674012    -0.47200
H1759       H  0.64386770  0.31426182  0.44789083     0.06450
C1760       C  0.79604741  0.20649138  0.39872812    -0.07330
Cl1761     Cl  0.75767804  0.26411736  0.47335217    -0.50330
C1762       C  0.83581378  0.18038161  0.02127077     0.42200
H1763       H  0.76332339  0.33791864  0.39890613     0.06410
N1764       N  0.75315404  0.18449461  0.41602874    -0.47040
C1765       C  0.59707117  0.23767462  0.29063310     0.42050
N1766       N  0.55763479  0.22666273  0.25680100     0.00940
C1767       C  0.98061374  0.32929217  0.15542289    -0.06930
H1768       H  0.50943052  0.36973473  0.24770668     0.06430
C1769       C  0.95241080  0.28118337  0.30618501    -0.07290
Co1770     Co  0.54450956  0.27283143  0.20778468     0.74180
N1771       N  0.52128908  0.32565848  0.23761302    -0.26460
Co1772     Co  0.97489102  0.30926716  0.22187371     0.74070
C1773       C  0.97137903  0.30614162  0.31475567     0.42150
N1774       N  0.96703938  0.21991224  0.28616899     0.00560
N1775       N  0.96204907  0.30501318  0.26589195     0.00660
N1776       N  0.52857742  0.30620002  0.14620627    -0.47310
H1777       H  0.60750169  0.27840298  0.26401997     0.06420
N1778       N  0.54898404  0.31198340  0.23158734     0.00950
N1779       N  0.92998052  0.29375408  0.20312530     0.00690
C1780       C  0.89374334  0.28420211  0.16519391     0.42290
N1781       N  0.99662720  0.20861661  0.28233195    -0.25920
C1782       C  0.52883583  0.23219012  0.15295446    -0.06840
N1783       N  0.57314347  0.21891310  0.28369834    -0.47030
N1784       N  0.91639876  0.30292686  0.17597548    -0.47250
C1785       C  0.51237804  0.20476861  0.14850782     0.42070
N1786       N  0.51793021  0.29705050  0.17213855     0.00940
N1787       N  0.96737626  0.19270623  0.22300299    -0.25940
N1788       N  0.56946090  0.25009981  0.24551988    -0.26430
N1789       N  0.93931903  0.20758258  0.22467243     0.00580
H1790       H  0.97835761  0.14751483  0.21711379     0.06470
H1791       H  0.88299987  0.24110368  0.18749074     0.06500
N1792       N  0.99049945  0.31098262  0.17830943    -0.26480
N1793       N  0.94879312  0.28157219  0.27557150    -0.26100
N1794       N  0.52525480  0.21146124  0.19620175     0.00940
C1795       C  0.56358235  0.35585253  0.24111654     0.42340
C1796       C  0.50673815  0.19064639  0.30551342    -0.07350
N1797       N  0.91819401  0.26918289  0.21146294    -0.26090
H1798       H  0.94685946  0.26354719  0.32057518     0.06490
N1799       N  0.57453889  0.32926932  0.23291365    -0.47320
H1800       H  0.52779079  0.17556588  0.30596198     0.06470
C1801       C  0.92409701  0.16447104  0.21491145     0.42170
C1802       C  0.59473779  0.25855096  0.26542855    -0.06840
Co1803     Co  0.51303053  0.20970682  0.23958507     0.73820
N1804       N  0.95520473  0.20893557  0.31081700    -0.47030
C1805       C  0.50563347  0.32608182  0.13383323     0.42440
N1806       N  0.51190669  0.19315841  0.17622939    -0.47020
Co1807     Co  0.94168485  0.24515280  0.24944382     0.73890
C1808       C  0.89494338  0.26148626  0.18885279    -0.07350
C1809       C  0.52807979  0.35305733  0.24468943    -0.06910
N1810       N  0.53533977  0.23484816  0.18340187    -0.26440
N1811       N  0.97548332  0.32037858  0.28876260    -0.47200
H1812       H  0.96086879  0.34558530  0.15578718     0.06450
C1813       C  0.96031005  0.16531363  0.21638620    -0.07330
Cl1814     Cl  0.99365397  0.25937351  0.22985386    -0.50330
C1815       C  0.97953832  0.19098540  0.32482279     0.42200
H1816       H  0.53155441  0.24874082  0.13618343     0.06410
N1817       N  0.91305417  0.19148531  0.22057291    -0.47040
C1818       C  0.69933448  0.49572555  0.33512355     0.42050
N1819       N  0.73362504  0.50533605  0.30178642     0.00940
C1820       C  0.69336595  0.06343737  0.15912429    -0.06930
H1821       H  0.66407184  0.44556543  0.17578577     0.06430
C1822       C  0.78172642  0.42931874  0.18070155    -0.07290
Co1823     Co  0.69475399  0.03053222  0.24648589     0.74180
N1824       N  0.67835913  0.48412439  0.20035444    -0.26460
Co1825     Co  0.71698946  0.50039375  0.17704750     0.74070
C1826       C  0.75387799  0.41752544  0.16081705     0.42150
N1827       N  0.80589594  0.46921938  0.25095192     0.00560
N1828       N  0.73985172  0.45970927  0.17675517     0.00660
N1829       N  0.67868359  0.08007052  0.20448418    -0.47310
H1830       H  0.65432514  0.50645310  0.30079671     0.06420
N1831       N  0.66986575  0.49523875  0.22630741     0.00950
N1832       N  0.75739842  0.01448798  0.15378460     0.00690
C1833       C  0.79138605  0.01882723  0.11867642     0.42290
N1834       N  0.79721049  0.48020523  0.27690384    -0.25920
C1835       C  0.71258611  0.09274741  0.27505300    -0.06840
N1836       N  0.73212415  0.49884035  0.33134928    -0.47030
N1837       N  0.75868738  0.01775649  0.12363174    -0.47250
C1838       C  0.74290896  0.10472153  0.29121758     0.42070
N1839       N  0.68791021  0.05264433  0.20604648     0.00940
N1840       N  0.81270391  0.03619885  0.25592282    -0.25940
N1841       N  0.70359479  0.50863208  0.28723302    -0.26430
N1842       N  0.82074047  0.02571032  0.22959790     0.00580
H1843       H  0.82932717  0.07223194  0.28299611     0.06470
H1844       H  0.83631452  0.00916067  0.15341330     0.06500
N1845       N  0.69669345  0.04217794  0.17992658    -0.26480
N1846       N  0.77078563  0.45558658  0.18903490    -0.26100
N1847       N  0.75230567  0.06063019  0.27878550     0.00940
C1848       C  0.64088587  0.45719596  0.22009610     0.42340
C1849       C  0.81325433  0.46557215  0.30028732    -0.07350
N1850       N  0.78746994  0.01142406  0.16825018    -0.26090
H1851       H  0.80675889  0.42072995  0.18619988     0.06490
N1852       N  0.64789304  0.47962611  0.23895058    -0.47320
H1853       H  0.81336066  0.47133310  0.32415945     0.06470
C1854       C  0.85132378  0.06238090  0.23747949     0.42170
C1855       C  0.68081008  0.50248336  0.30588154    -0.06840
Co1856     Co  0.77430587  0.02018697  0.27887509     0.73820
N1857       N  0.82828302  0.44794134  0.25527295    -0.47030
C1858       C  0.68216772  0.08856432  0.17590631     0.42440
N1859       N  0.76575627  0.08293356  0.29304247    -0.47020
Co1860     Co  0.79653548  0.49040984  0.20979848     0.73890
C1861       C  0.81009622  0.01460808  0.14849305    -0.07350
C1862       C  0.66125978  0.46011947  0.19460192    -0.06910
N1863       N  0.72115896  0.06540422  0.26766259    -0.26440
N1864       N  0.72909680  0.43789432  0.15978568    -0.47200
H1865       H  0.69919021  0.06164706  0.13566558     0.06450
C1866       C  0.83103710  0.05901332  0.26296711    -0.07330
Cl1867     Cl  0.74564653  0.51019624  0.22807011    -0.50330
C1868       C  0.83441127  0.44503647  0.28569272     0.42200
H1869       H  0.68802604  0.10279115  0.27069119     0.06410
N1870       N  0.84339987  0.04090994  0.21764784    -0.47040
C1871       C  0.91042876  0.11346969  0.20349839    -0.09560
C1872       C  0.90525775  0.13852871  0.22043797     0.06630
C1873       C  0.88325829  0.13784218  0.24344850    -0.03330
C1874       C  0.86643651  0.11291137  0.24838951    -0.07780
C1875       C  0.87089267  0.08789478  0.23114662     0.05750
C1876       C  0.89346291  0.08834894  0.20849303    -0.02800
Br1877     Br  0.90330854  0.05540999  0.18426335    -0.02500
H1878       H  0.92772199  0.11345262  0.18618718     0.09660
H1879       H  0.84960007  0.11341726  0.26601671     0.07680
Br1880     Br  0.87637717  0.16927419  0.27076614    -0.02930
C1881       C  0.58675913  0.43245568  0.21838223    -0.09560
C1882       C  0.62100001  0.43199246  0.22732066     0.06630
C1883       C  0.63584478  0.40689154  0.24170681    -0.03330
C1884       C  0.61673765  0.38276659  0.24623082    -0.07780
C1885       C  0.58230965  0.38293861  0.23711530     0.05750
C1886       C  0.56745020  0.40855415  0.22307341    -0.02800
Br1887     Br  0.52162696  0.41241325  0.20718380    -0.02500
H1888       H  0.57497573  0.45143524  0.20700973     0.09660
H1889       H  0.62894825  0.36368831  0.25699892     0.07680
Br1890     Br  0.68230592  0.40474721  0.25560795    -0.02930
C1891       C  0.72128813  0.38324294  0.12788667    -0.09560
C1892       C  0.75279020  0.39325305  0.13834323     0.06630
C1893       C  0.78045650  0.38260018  0.12380338    -0.03330
C1894       C  0.77574600  0.36393348  0.09871769    -0.07780
C1895       C  0.74400261  0.35527116  0.08732177     0.05750
C1896       C  0.71660762  0.36469471  0.10277011    -0.02800
Br1897     Br  0.67156417  0.35616999  0.08905893    -0.02500
H1898       H  0.69963678  0.39103425  0.13849469     0.09660
H1899       H  0.79715221  0.35674523  0.08739653     0.07680
Br1900     Br  0.82507935  0.39402252  0.13440621    -0.02930
C1901       C  0.73477120  0.12267875  0.34286042    -0.09560
C1902       C  0.74582238  0.12803425  0.31433661     0.06630
C1903       C  0.76621303  0.15163253  0.31141919    -0.03330
C1904       C  0.77466033  0.16962272  0.33671831    -0.07780
C1905       C  0.76385218  0.16401560  0.36560006     0.05750
C1906       C  0.74387436  0.13977809  0.36831384    -0.02800
Br1907     Br  0.73029206  0.12614065  0.40641755    -0.02500
H1908       H  0.72059882  0.10378505  0.34588050     0.09660
H1909       H  0.78982137  0.18788486  0.33379660     0.07680
Br1910     Br  0.78337421  0.15964261  0.27328654    -0.02930
C1911       C  0.64742120  0.23594487  0.32779854    -0.09560
C1912       C  0.61309841  0.24082340  0.32209576     0.06630
C1913       C  0.59414497  0.24589258  0.34698417    -0.03330
C1914       C  0.60936968  0.24393500  0.37712829    -0.07780
C1915       C  0.64346762  0.23713734  0.38298853     0.05750
C1916       C  0.66276928  0.23447432  0.35787160    -0.02800
Br1917     Br  0.71028385  0.23116670  0.36264224    -0.02500
H1918       H  0.66229896  0.23280465  0.30878640     0.09660
H1919       H  0.59443159  0.24732167  0.39605452     0.07680
Br1920     Br  0.54762924  0.25645114  0.34086476    -0.02930
C1921       C  0.84043383  0.28500416  0.08804587    -0.09560
C1922       C  0.86462299  0.28783810  0.06735829     0.06630
C1923       C  0.89824992  0.28713123  0.07904731    -0.03330
C1924       C  0.90722871  0.28481264  0.11080151    -0.07780
C1925       C  0.88310524  0.28245827  0.13163829     0.05750
C1926       C  0.84945342  0.28203826  0.11984781    -0.02800
Br1927     Br  0.81498618  0.27935615  0.14650026    -0.02500
H1928       H  0.81437718  0.28542344  0.07946371     0.09660
H1929       H  0.93325678  0.28537811  0.11931877     0.07680
Br1930     Br  0.93247844  0.29102300  0.05239311    -0.02930
C1931       C  0.89082434  0.16125534  0.04383835    -0.09560
C1932       C  0.85831114  0.15554032  0.03146581     0.06630
C1933       C  0.85076639  0.12694076  0.02364809    -0.03330
C1934       C  0.87625668  0.10562354  0.02552150    -0.07780
C1935       C  0.90945297  0.11235891  0.03399544     0.05750
C1936       C  0.91635631  0.13998108  0.04483407    -0.02800
Br1937     Br  0.96095988  0.15050868  0.05681893    -0.02500
H1938       H  0.89703894  0.18299644  0.05023142     0.09660
H1939       H  0.87071364  0.08436365  0.01690192     0.07680
Br1940     Br  0.80813165  0.11623340  0.50486037    -0.02930
C1941       C  0.62200138  0.41590116  0.42382524    -0.09560
C1942       C  0.59073048  0.40438420  0.41516687     0.06630
C1943       C  0.58983191  0.37590409  0.40491382    -0.03330
C1944       C  0.61929544  0.35918640  0.40463731    -0.07780
C1945       C  0.65014638  0.36949464  0.41669124     0.05750
C1946       C  0.65155529  0.39874582  0.42489756    -0.02800
Br1947     Br  0.69181675  0.41530256  0.44215243    -0.02500
H1948       H  0.62313881  0.43751819  0.43284447     0.09660
H1949       H  0.61750083  0.33676909  0.39833312     0.07680
Br1950     Br  0.54882683  0.35691079  0.39756908    -0.02930
C1951       C  0.68592513  0.01963079  0.38422189    -0.09560
C1952       C  0.68263278  0.49618208  0.36402398     0.06630
C1953       C  0.65627716  0.47766048  0.36679087    -0.03330
C1954       C  0.63281993  0.98364738  0.38761280    -0.07780
C1955       C  0.63498286  0.00781289  0.40666545     0.05750
C1956       C  0.66244411  0.02542833  0.40547224    -0.02800
Br1957     Br  0.66689139  0.05913791  0.43028286    -0.02500
H1958       H  0.70528196  0.03466908  0.38195610     0.09660
H1959       H  0.61187116  0.46993481  0.38798311     0.07680
Br1960     Br  0.64993044  0.44470629  0.34092484    -0.02930
C1961       C  0.82420953  0.48412535  0.08919502    -0.09560
C1962       C  0.80611943  0.01053137  0.08977294     0.06630
C1963       C  0.80831133  0.03022234  0.06565686    -0.03330
C1964       C  0.82983889  0.52416983  0.04278317    -0.07780
C1965       C  0.84983615  0.49860321  0.04367811     0.05750
C1966       C  0.84578565  0.47812528  0.06665844    -0.02800
Br1967     Br  0.87015354  0.44182222  0.06893047    -0.02500
H1968       H  0.82288089  0.46856522  0.10740412     0.09660
H1969       H  0.83256037  0.54034068  0.02552590     0.07680
Br1970     Br  0.78480845  0.06673613  0.06506396    -0.02930
C1971       C  0.51659795  0.36930402  0.06183888    -0.09560
C1972       C  0.51354197  0.39749711  0.07308759     0.06630
C1973       C  0.51330493  0.40145490  0.10491890    -0.03330
C1974       C  0.51233418  0.37773434  0.12426070    -0.07780
C1975       C  0.51270339  0.34962552  0.11289020     0.05750
C1976       C  0.51654380  0.34537965  0.08163037    -0.02800
Br1977     Br  0.52034780  0.30748399  0.06507047    -0.02500
H1978       H  0.51783544  0.36587227  0.03755220     0.09660
H1979       H  0.51076624  0.38129067  0.14844065     0.07680
Br1980     Br  0.51593458  0.43863782  0.12369192    -0.02930
C1981       C  0.00001829  0.13288068  0.38562479    -0.09560
C1982       C  0.97381174  0.11427145  0.37926649     0.06630
C1983       C  0.94735809  0.12289622  0.35728676    -0.03330
C1984       C  0.94815483  0.14907240  0.34122913    -0.07780
C1985       C  0.97506956  0.16716951  0.34670561     0.05750
C1986       C  0.00066534  0.15913176  0.36981423    -0.02800
Br1987     Br  0.53700975  0.18355881  0.38079654    -0.02500
H1988       H  0.02019055  0.12691041  0.40287424     0.09660
H1989       H  0.92859380  0.15448524  0.32325997     0.07680
Br1990     Br  0.91107221  0.09840701  0.34651225    -0.02930
C1991       C  0.66018488  0.14616885  0.11915528    -0.09560
C1992       C  0.62636549  0.15233861  0.12472402     0.06630
C1993       C  0.61845629  0.14645166  0.15489137    -0.03330
C1994       C  0.63928090  0.12754362  0.17349497    -0.07780
C1995       C  0.66859336  0.11591517  0.16328424     0.05750
C1996       C  0.68107364  0.12818110  0.13810462    -0.02800
Br1997     Br  0.72457507  0.11853997  0.12629550    -0.02500
H1998       H  0.66936674  0.15138095  0.09767843     0.09660
H1999       H  0.63137423  0.12045874  0.19506498     0.07680
Br2000     Br  0.58410716  0.16510795  0.17498290    -0.02930
C2001       C  0.54555688  0.14839529  0.11386064    -0.09560
C2002       C  0.56515967  0.16721136  0.09876198     0.06630
C2003       C  0.54806918  0.19288731  0.08528242    -0.03330
C2004       C  0.51784231  0.20169018  0.09527167    -0.07780
C2005       C  0.50767338  0.18794651  0.12044062     0.05750
C2006       C  0.51560495  0.15846237  0.12360479    -0.02800
Br2007     Br  0.49167113  0.13385813  0.14785510    -0.02500
H2008       H  0.55480274  0.12692545  0.12055409     0.09660
H2009       H  0.50710925  0.22278274  0.08873025     0.07680
Br2010     Br  0.56104653  0.21895979  0.05445879    -0.02930
C2011       C  0.65795156  0.21696354  0.08851750    -0.09560
C2012       C  0.67474002  0.20629603  0.06465685     0.06630
C2013       C  0.65921779  0.18674226  0.04354366    -0.03330
C2014       C  0.63150741  0.17338153  0.05107128    -0.07780
C2015       C  0.61798417  0.18003700  0.07844374     0.05750
C2016       C  0.62880306  0.20503891  0.09485646    -0.02800
Br2017     Br  0.60938366  0.22086125  0.12971138    -0.02500
H2018       H  0.66792064  0.23433001  0.10260935     0.09660
H2019       H  0.62327712  0.15590841  0.03667234     0.07680
Br2020     Br  0.67260936  0.17636587  0.50390749    -0.02930
C2021       C  0.61278681  0.10176449  0.09378859    -0.09560
C2022       C  0.59874442  0.12719975  0.07845986     0.06630
C2023       C  0.57896972  0.12302136  0.05002971    -0.03330
C2024       C  0.57415324  0.09540510  0.03893070    -0.07780
C2025       C  0.58728432  0.07149387  0.05576153     0.05750
C2026       C  0.60771413  0.07458708  0.08252406    -0.02800
Br2027     Br  0.62469801  0.04195669  0.10710948    -0.02500
H2028       H  0.62556640  0.10149633  0.11629020     0.09660
H2029       H  0.55733788  0.09237725  0.01842969     0.07680
Br2030     Br  0.55448291  0.15226816  0.02539528    -0.02930
C2031       C  0.91750680  0.37526318  0.41965385    -0.09560
C2032       C  0.88783128  0.37373775  0.39970899     0.06630
C2033       C  0.86216139  0.39312537  0.40708214    -0.03330
C2034       C  0.87091362  0.42049643  0.41739068    -0.07780
C2035       C  0.90456099  0.42550056  0.42520254     0.05750
C2036       C  0.92645652  0.40167717  0.43178704    -0.02800
Br2037     Br  0.96951095  0.40466294  0.45397005    -0.02500
H2038       H  0.93640288  0.35818785  0.42158248     0.09660
H2039       H  0.85211589  0.43761768  0.41803433     0.07680
Br2040     Br  0.82273264  0.37877949  0.42132853    -0.02930
C2041       C  0.79849557  0.33871590  0.34623547    -0.09560
C2042       C  0.80390034  0.30945413  0.35153157     0.06630
C2043       C  0.83439723  0.29743989  0.34471243    -0.03330
C2044       C  0.86194800  0.31449812  0.34826017    -0.07780
C2045       C  0.85859620  0.34385477  0.35642303     0.05750
C2046       C  0.82540896  0.35648033  0.35048103    -0.02800
Br2047     Br  0.81218501  0.39669888  0.34657365    -0.02500
H2048       H  0.77353033  0.34811751  0.34575555     0.09660
H2049       H  0.88542523  0.30430897  0.34439529     0.07680
Br2050     Br  0.84025096  0.25716473  0.33687878    -0.02930
C2051       C  0.89190205  0.41432268  0.34827772    -0.09560
C2052       C  0.88773150  0.38534315  0.34104886     0.06630
C2053       C  0.88167840  0.37877790  0.30922896    -0.03330
C2054       C  0.86700183  0.39991067  0.28937754    -0.07780
C2055       C  0.86158801  0.42749979  0.30046648     0.05750
C2056       C  0.87852884  0.43571220  0.32828103    -0.02800
Br2057     Br  0.88364319  0.47511614  0.33999641    -0.02500
H2058       H  0.90536430  0.42023939  0.36926779     0.09660
H2059       H  0.85718287  0.39415922  0.26638977     0.07680
Br2060     Br  0.89040471  0.34211640  0.29120958    -0.02930
C2061       C  0.95058188  0.36239713  0.35590320    -0.09560
C2062       C  0.92399648  0.34667454  0.36557228     0.06630
C2063       C  0.93336762  0.31917024  0.37845716    -0.03330
C2064       C  0.96096826  0.30469916  0.36810735    -0.07780
C2065       C  0.97731341  0.31808026  0.34550175     0.05750
C2066       C  0.97808570  0.34798787  0.34631366    -0.02800
Br2067     Br  0.00794933  0.36946095  0.32449288    -0.02500
H2068       H  0.94911819  0.38545770  0.35310505     0.09660
H2069       H  0.96498604  0.28190525  0.37272042     0.07680
Br2070     Br  0.90971000  0.30029816  0.40825742    -0.02930
C2071       C  0.88946518  0.36194861  0.86630782    -0.02890
C2072       C  0.60121000  0.15704517  0.59508168    -0.02890
C2073       C  0.56054061  0.41896505  0.92557690     0.42050
N2074       N  0.52732320  0.45625606  0.92949897     0.00940
C2075       C  0.53618167  0.04286139  0.55550212    -0.06930
H2076       H  0.96624941  0.45041528  0.56832956     0.06430
C2077       C  0.88076607  0.50655945  0.99311092    -0.07290
Co2078     Co  0.54570458  0.48024041  0.99069704     0.74180
N2079       N  0.99569579  0.46680227  0.53439572    -0.26460
Co2080     Co  0.97828143  0.50933246  0.52682481     0.74070
C2081       C  0.87809175  0.49524820  0.02415222     0.42150
N2082       N  0.93232074  0.49561769  0.92707830     0.00560
N2083       N  0.92981091  0.49747365  0.51595418     0.00660
N2084       N  0.57875380  0.02558893  0.53011351    -0.47310
H2085       H  0.57710285  0.41915374  0.97663021     0.06420
N2086       N  0.52132986  0.45581556  0.52130542     0.00950
N2087       N  0.96046617  0.05233962  0.51792948     0.00690
C2088       C  0.93567965  0.09379265  0.52229390     0.42290
N2089       N  0.95761692  0.48366177  0.91403203    -0.25920
C2090       C  0.60316060  0.00545169  0.95630881    -0.06840
N2091       N  0.54056544  0.43901972  0.90931785    -0.47030
N2092       N  0.95261733  0.07192869  0.53830402    -0.47250
C2093       C  0.60653281  0.01531072  0.92486377     0.42070
N2094       N  0.55135283  0.01166607  0.52299192     0.00940
N2095       N  0.98751843  0.04100346  0.91181746    -0.25940
N2096       N  0.53970679  0.44958490  0.95768753    -0.26430
N2097       N  0.96214780  0.05204534  0.92517945     0.00580
H2098       H  0.01750737  0.05840033  0.87854680     0.06470
H2099       H  0.91617094  0.09465908  0.97156491     0.06500
N2100       N  0.52603385  0.02189137  0.53692672    -0.26480
N2101       N  0.91365795  0.50701091  0.99008769    -0.26100
N2102       N  0.55444309  0.01179887  0.93168600     0.00940
C2103       C  0.50904695  0.42246242  0.55175260     0.42340
C2104       C  0.94970747  0.45702017  0.90585093    -0.07350
N2105       N  0.94766611  0.05955472  0.98996673    -0.26090
H2106       H  0.86133261  0.51610287  0.97710451     0.06490
N2107       N  0.53024857  0.42936519  0.53121697    -0.47320
H2108       H  0.96677606  0.44082856  0.89810002     0.06470
C2109       C  0.97465536  0.08605453  0.89552372     0.42170
C2110       C  0.55949910  0.42606240  0.95758110    -0.06840
Co2111     Co  0.50611107  0.99849761  0.92071232     0.73820
N2112       N  0.90804432  0.47789735  0.92951606    -0.47030
C2113       C  0.57083805  0.04504900  0.55091413     0.42440
N2114       N  0.57507781  0.01797427  0.91117666    -0.47020
Co2115     Co  0.93882239  0.02880202  0.95718297     0.73890
C2116       C  0.93274082  0.08548157  0.99026623    -0.07350
C2117       C  0.98600641  0.44720578  0.55367977    -0.06910
N2118       N  0.57023407  0.00377772  0.95841373    -0.26440
N2119       N  0.90972080  0.49074109  0.53671225    -0.47200
H2120       H  0.02054480  0.05648494  0.56848688     0.06450
C2121       C  0.99736194  0.06109491  0.89283925    -0.07330
Cl2122     Cl  0.99233176  0.00425482  0.97381821    -0.50330
C2123       C  0.91755419  0.45308003  0.91730774     0.42200
H2124       H  0.62243010  0.99654541  0.97290604     0.06410
N2125       N  0.95358444  0.07875653  0.91595875    -0.47040
C2126       C  0.85431026  0.29242335  0.53400129     0.42050
N2127       N  0.83137401  0.27829441  0.98999993     0.00940
C2128       C  0.66802771  0.32171205  0.94385879    -0.06930
H2129       H  0.69781311  0.30716538  0.56022319     0.06430
C2130       C  0.72802060  0.20603735  0.54110608    -0.07270
Co2131     Co  0.76938609  0.31552381  0.97143733     0.74180
N2132       N  0.72518594  0.30806008  0.52056878    -0.26460
Co2133     Co  0.70387457  0.27860063  0.98916542     0.74070
C2134       C  0.70416510  0.22069858  0.55881677     0.42150
N2135       N  0.79291967  0.20276391  0.99810722     0.00560
N2136       N  0.71232084  0.24721348  0.52133432     0.00660
N2137       N  0.70983719  0.34958519  0.93309091    -0.47310
H2138       H  0.82014867  0.33241996  0.53304060     0.06420
N2139       N  0.75035909  0.32295819  0.51358485     0.00950
N2140       N  0.68377918  0.24958231  0.95705966     0.00690
C2141       C  0.65831920  0.23401118  0.91521385     0.42290
N2142       N  0.81833283  0.21689394  0.99040225    -0.25920
C2143       C  0.77780237  0.31796611  0.90238477    -0.06840
N2144       N  0.85394954  0.27102838  0.51318481    -0.47030
N2145       N  0.65949125  0.25597749  0.93520745    -0.47250
C2146       C  0.79143689  0.29909133  0.87962929     0.42070
N2147       N  0.72121731  0.32658555  0.94979393     0.00940
N2148       N  0.78957120  0.21801730  0.92610617    -0.25940
N2149       N  0.81567854  0.30305516  0.99487374    -0.26430
N2150       N  0.76419252  0.20460125  0.93501545     0.00580
H2151       H  0.81603341  0.21232456  0.88563740     0.06470
H2152       H  0.69230268  0.19365356  0.91601484     0.06500
N2153       N  0.69687623  0.31075923  0.95685946    -0.26480
N2154       N  0.72892240  0.22307813  0.01692634    -0.26100
N2155       N  0.80200147  0.28046520  0.92450146     0.00940
C2156       C  0.74061030  0.33837309  0.55831612     0.42340
C2157       C  0.84637591  0.20472368  0.00420028    -0.07350
N2158       N  0.69939003  0.22482509  0.95233811    -0.26090
H2159       H  0.73688477  0.18379354  0.54248168     0.06490
N2160       N  0.76019155  0.34137700  0.53534891    -0.47320
H2161       H  0.87122904  0.21054616  0.00037599     0.06470
C2162       C  0.77146204  0.18377747  0.89225761     0.42170
C2163       C  0.82924345  0.31374246  0.52153523    -0.06840
Co2164     Co  0.81159430  0.24891508  0.95726090     0.73820
N2165       N  0.80225976  0.18024575  0.01598527    -0.47030
C2166       C  0.67624283  0.34732340  0.92784718     0.42440
N2167       N  0.80606777  0.27640158  0.89536783    -0.47020
Co2168     Co  0.74579129  0.21323969  0.97601696     0.73890
C2169       C  0.68423603  0.21304505  0.92696419    -0.07350
C2170       C  0.71731155  0.31605380  0.54847331    -0.06910
N2171       N  0.78578253  0.30488877  0.92938184    -0.26440
N2172       N  0.69794342  0.24701906  0.54674010    -0.47200
H2173       H  0.64386768  0.31426181  0.94789084     0.06450
C2174       C  0.79604738  0.20649138  0.89872812    -0.07330
Cl2175     Cl  0.75767802  0.26411735  0.97335217    -0.50330
C2176       C  0.83581380  0.18038161  0.52127076     0.42200
H2177       H  0.76332336  0.33791863  0.89890614     0.06410
N2178       N  0.75315401  0.18449461  0.91602875    -0.47040
C2179       C  0.59707118  0.23767463  0.79063311     0.42050
N2180       N  0.55763481  0.22666274  0.75680100     0.00940
C2181       C  0.98061376  0.32929217  0.65542289    -0.06930
H2182       H  0.50943054  0.36973474  0.74770670     0.06430
C2183       C  0.95241080  0.28118337  0.80618501    -0.07290
Co2184     Co  0.54450958  0.27283145  0.70778469     0.74180
N2185       N  0.52128910  0.32565849  0.73761303    -0.26460
Co2186     Co  0.97489103  0.30926716  0.72187371     0.74070
C2187       C  0.97137903  0.30614162  0.81475567     0.42150
N2188       N  0.96703938  0.21991224  0.78616898     0.00560
N2189       N  0.96204907  0.30501318  0.76589195     0.00660
N2190       N  0.52857744  0.30620003  0.64620628    -0.47310
H2191       H  0.60750170  0.27840300  0.76401998     0.06420
N2192       N  0.54898406  0.31198341  0.73158735     0.00950
N2193       N  0.92998054  0.29375409  0.70312529     0.00690
C2194       C  0.89374336  0.28420212  0.66519390     0.42290
N2195       N  0.99662721  0.20861661  0.78233194    -0.25920
C2196       C  0.52883586  0.23219014  0.65295447    -0.06840
N2197       N  0.57314348  0.21891311  0.78369834    -0.47030
N2198       N  0.91639877  0.30292687  0.67597548    -0.47250
C2199       C  0.51237808  0.20476862  0.64850782     0.42070
N2200       N  0.51793023  0.29705051  0.67213856     0.00940
N2201       N  0.96737628  0.19270624  0.72300298    -0.25940
N2202       N  0.56946092  0.25009983  0.74551989    -0.26430
N2203       N  0.93931904  0.20758259  0.72467242     0.00580
H2204       H  0.97835762  0.14751483  0.71711379     0.06470
H2205       H  0.88299988  0.24110369  0.68749073     0.06500
N2206       N  0.99049947  0.31098262  0.67830943    -0.26480
N2207       N  0.94879313  0.28157219  0.77557150    -0.26100
N2208       N  0.52525483  0.21146126  0.69620175     0.00940
C2209       C  0.56358237  0.35585254  0.74111655     0.42340
C2210       C  0.50673816  0.19064639  0.80551341    -0.07350
N2211       N  0.91819402  0.26918289  0.71146293    -0.26090
H2212       H  0.94685945  0.26354719  0.82057517     0.06490
N2213       N  0.57453891  0.32926933  0.73291366    -0.47320
H2214       H  0.52779079  0.17556587  0.80596196     0.06470
C2215       C  0.92409702  0.16447104  0.71491144     0.42170
C2216       C  0.59473781  0.25855097  0.76542856    -0.06840
Co2217     Co  0.51303055  0.20970683  0.73958507     0.73820
N2218       N  0.95520473  0.20893557  0.81081699    -0.47030
C2219       C  0.50563350  0.32608183  0.63383324     0.42440
N2220       N  0.51190673  0.19315843  0.67622938    -0.47020
Co2221     Co  0.94168486  0.24515280  0.74944381     0.73890
C2222       C  0.89494339  0.26148627  0.68885278    -0.07350
C2223       C  0.52807981  0.35305734  0.74468944    -0.06910
N2224       N  0.53533980  0.23484818  0.68340187    -0.26440
N2225       N  0.97548332  0.32037858  0.78876260    -0.47200
H2226       H  0.96086881  0.34558531  0.65578717     0.06450
C2227       C  0.96031006  0.16531364  0.71638619    -0.07330
Cl2228     Cl  0.99365398  0.25937351  0.72985386    -0.50330
C2229       C  0.97953832  0.19098540  0.82482278     0.42200
H2230       H  0.53155445  0.24874084  0.63618343     0.06410
N2231       N  0.91305418  0.19148531  0.72057289    -0.47040
C2232       C  0.69933447  0.49572558  0.83512356     0.42050
N2233       N  0.73362503  0.50533607  0.80178644     0.00940
C2234       C  0.69336597  0.06343732  0.65912429    -0.06930
H2235       H  0.66407187  0.44556543  0.67578579     0.06430
C2236       C  0.78172643  0.42931872  0.68070159    -0.07290
Co2237     Co  0.69475402  0.03053220  0.74648590     0.74180
N2238       N  0.67835915  0.48412439  0.70035446    -0.26460
Co2239     Co  0.71698949  0.50039374  0.67704752     0.74070
C2240       C  0.75387801  0.41752543  0.66081708     0.42150
N2241       N  0.80589594  0.46921937  0.75095197     0.00560
N2242       N  0.73985174  0.45970926  0.67675520     0.00660
N2243       N  0.67868361  0.08007048  0.70448417    -0.47310
H2244       H  0.65432513  0.50645313  0.80079672     0.06420
N2245       N  0.66986576  0.49523876  0.72630742     0.00950
N2246       N  0.75739847  0.01448794  0.65378462     0.00690
C2247       C  0.79138610  0.01882719  0.61867645     0.42290
N2248       N  0.79721048  0.48020523  0.77690388    -0.25920
C2249       C  0.71258611  0.09274740  0.77505299    -0.06840
N2250       N  0.73212413  0.49884037  0.83134929    -0.47030
N2251       N  0.75868743  0.01775644  0.62363177    -0.47250
C2252       C  0.74290895  0.10472153  0.79121757     0.42070
N2253       N  0.68791024  0.05264430  0.70604648     0.00940
N2254       N  0.81270393  0.03619886  0.75592284    -0.25940
N2255       N  0.70359478  0.50863210  0.78723304    -0.26430
N2256       N  0.82074051  0.02571031  0.72959793     0.00580
H2257       H  0.82932718  0.07223196  0.78299611     0.06470
H2258       H  0.83631457  0.00916063  0.65341333     0.06500
N2259       N  0.69669348  0.04217790  0.67992659    -0.26480
N2260       N  0.77078565  0.45558656  0.68903494    -0.26100
N2261       N  0.75230568  0.06063020  0.77878551     0.00940
C2262       C  0.64088588  0.45719597  0.72009611     0.42340
C2263       C  0.81325430  0.46557215  0.80028738    -0.07350
N2264       N  0.78746999  0.01142402  0.66825021    -0.26090
H2265       H  0.80675890  0.42072993  0.68619992     0.06490
N2266       N  0.64789305  0.47962613  0.73895058    -0.47320
H2267       H  0.81336062  0.47133311  0.82415951     0.06470
C2268       C  0.85132379  0.06238091  0.73747950     0.42170
C2269       C  0.68081006  0.50248338  0.80588155    -0.06840
Co2270     Co  0.77430589  0.02018698  0.77887511     0.73820
N2271       N  0.82828301  0.44794133  0.75527302    -0.47030
C2272       C  0.68216773  0.08856427  0.67590630     0.42440
N2273       N  0.76575627  0.08293358  0.79304247    -0.47020
Co2274     Co  0.79653550  0.49040982  0.70979852     0.73890
C2275       C  0.81009627  0.01460804  0.64849308    -0.07350
C2276       C  0.66125980  0.46011948  0.69460193    -0.06910
N2277       N  0.72115897  0.06540421  0.76766259    -0.26440
N2278       N  0.72909682  0.43789431  0.65978570    -0.47200
H2279       H  0.69919023  0.06164700  0.63566558     0.06450
C2280       C  0.83103711  0.05901333  0.76296712    -0.07330
Cl2281     Cl  0.74564655  0.51019624  0.72807013    -0.50330
C2282       C  0.83441124  0.44503646  0.78569279     0.42200
H2283       H  0.68802603  0.10279114  0.77069117     0.06410
N2284       N  0.84339990  0.04090993  0.71764787    -0.47040
C2285       C  0.91042878  0.11346969  0.70349839    -0.09560
C2286       C  0.90525777  0.13852872  0.72043796     0.06630
C2287       C  0.88325830  0.13784219  0.74344850    -0.03330
C2288       C  0.86643653  0.11291138  0.74838952    -0.07780
C2289       C  0.87089268  0.08789479  0.73114663     0.05750
C2290       C  0.89346293  0.08834895  0.70849304    -0.02800
Br2291     Br  0.90330855  0.05540999  0.68426336    -0.02500
H2292       H  0.92772200  0.11345262  0.68618718     0.09660
H2293       H  0.84960008  0.11341727  0.76601671     0.07680
Br2294     Br  0.87637718  0.16927421  0.77076612    -0.02930
C2295       C  0.58675914  0.43245569  0.71838224    -0.09560
C2296       C  0.62100002  0.43199248  0.72732067     0.06630
C2297       C  0.63584479  0.40689156  0.74170684    -0.03330
C2298       C  0.61673766  0.38276661  0.74623085    -0.07780
C2299       C  0.58230967  0.38293863  0.73711532     0.05750
C2300       C  0.56745022  0.40855416  0.72307341    -0.02800
Br2301     Br  0.52162698  0.41241325  0.70718379    -0.02500
H2302       H  0.57497574  0.45143524  0.70700972     0.09660
H2303       H  0.62894826  0.36368833  0.75699895     0.07680
Br2304     Br  0.68230592  0.40474723  0.75560799    -0.02930
C2305       C  0.72128815  0.38324294  0.62788669    -0.09560
C2306       C  0.75279021  0.39325304  0.63834325     0.06630
C2307       C  0.78045652  0.38260019  0.62380339    -0.03330
C2308       C  0.77574602  0.36393349  0.59871770    -0.07780
C2309       C  0.74400263  0.35527117  0.58732177     0.05750
C2310       C  0.71660764  0.36469471  0.60277012    -0.02800
Br2311     Br  0.67156419  0.35616999  0.58905894    -0.02500
H2312       H  0.69963680  0.39103424  0.63849470     0.09660
H2313       H  0.79715223  0.35674524  0.58739652     0.07680
Br2314     Br  0.82507936  0.39402253  0.63440622    -0.02930
C2315       C  0.73477113  0.12267877  0.84286039    -0.09560
C2316       C  0.74582236  0.12803426  0.81433659     0.06630
C2317       C  0.76621303  0.15163253  0.81141918    -0.03330
C2318       C  0.77466032  0.16962271  0.83671831    -0.07780
C2319       C  0.76385214  0.16401561  0.86560005     0.05750
C2320       C  0.74387428  0.13977812  0.86831381    -0.02800
Br2321     Br  0.73029192  0.12614069  0.90641750    -0.02500
H2322       H  0.72059873  0.10378509  0.84588046     0.09660
H2323       H  0.78982138  0.18788484  0.83379662     0.07680
Br2324     Br  0.78337425  0.15964260  0.77328655    -0.02930
C2325       C  0.64742121  0.23594489  0.82779856    -0.09560
C2326       C  0.61309841  0.24082341  0.82209577     0.06630
C2327       C  0.59414496  0.24589257  0.84698417    -0.03330
C2328       C  0.60936966  0.24393498  0.87712830    -0.07780
C2329       C  0.64346761  0.23713734  0.88298854     0.05750
C2330       C  0.66276928  0.23447433  0.85787162    -0.02800
Br2331     Br  0.71028385  0.23116674  0.86264228    -0.02500
H2332       H  0.66229897  0.23280469  0.80878642     0.09660
H2333       H  0.59443157  0.24732164  0.89605453     0.07680
Br2334     Br  0.54762923  0.25645112  0.84086476    -0.02930
C2335       C  0.84043385  0.28500415  0.58804586    -0.09560
C2336       C  0.86462301  0.28783812  0.56735829     0.06630
C2337       C  0.89824993  0.28713129  0.57904730    -0.03330
C2338       C  0.90722872  0.28481270  0.61080151    -0.07780
C2339       C  0.88310525  0.28245829  0.63163829     0.05750
C2340       C  0.84945344  0.28203824  0.61984781    -0.02800
Br2341     Br  0.81498620  0.27935609  0.64650025    -0.02500
H2342       H  0.81437720  0.28542339  0.57946370     0.09660
H2343       H  0.93325680  0.28537819  0.61931877     0.07680
Br2344     Br  0.93247845  0.29102311  0.55239311    -0.02930
C2345       C  0.89082436  0.16125533  0.54383833    -0.09560
C2346       C  0.85831115  0.15554032  0.53146579     0.06630
C2347       C  0.85076639  0.12694076  0.52364809    -0.03330
C2348       C  0.87625668  0.10562353  0.52552149    -0.07780
C2349       C  0.90945297  0.11235889  0.53399543     0.05750
C2350       C  0.91635632  0.13998107  0.54483405    -0.02800
Br2351     Br  0.96095989  0.15050865  0.55681892    -0.02500
H2352       H  0.89703897  0.18299643  0.55023140     0.09660
H2353       H  0.87071363  0.08436364  0.51690192     0.07680
Br2354     Br  0.80813166  0.11623340  0.00486034    -0.02930
C2355       C  0.62200137  0.41590115  0.92382527    -0.09560
C2356       C  0.59073047  0.40438419  0.91516690     0.06630
C2357       C  0.58983190  0.37590408  0.90491384    -0.03330
C2358       C  0.61929542  0.35918639  0.90463732    -0.07780
C2359       C  0.65014636  0.36949462  0.91669126     0.05750
C2360       C  0.65155527  0.39874580  0.92489758    -0.02800
Br2361     Br  0.69181674  0.41530254  0.94215245    -0.02500
H2362       H  0.62313880  0.43751817  0.93284450     0.09660
H2363       H  0.61750081  0.33676908  0.89833313     0.07680
Br2364     Br  0.54882681  0.35691079  0.89756909    -0.02930
C2365       C  0.68592512  0.01963081  0.88422191    -0.09560
C2366       C  0.68263276  0.49618211  0.86402399     0.06630
C2367       C  0.65627715  0.47766050  0.86679088    -0.03330
C2368       C  0.63281994  0.98364739  0.88761281    -0.07780
C2369       C  0.63498286  0.00781290  0.90666546     0.05750
C2370       C  0.66244410  0.02542835  0.90547224    -0.02800
Br2371     Br  0.66689136  0.05913794  0.93028286    -0.02500
H2372       H  0.70528195  0.03466911  0.88195611     0.09660
H2373       H  0.61187116  0.46993481  0.88798314     0.07680
Br2374     Br  0.64993045  0.44470631  0.84092487    -0.02930
C2375       C  0.82420959  0.48412534  0.58919504    -0.09560
C2376       C  0.80611948  0.01053133  0.58977297     0.06630
C2377       C  0.80831136  0.03022230  0.56565687    -0.03330
C2378       C  0.82983893  0.52416983  0.54278319    -0.07780
C2379       C  0.84983619  0.49860321  0.54367813     0.05750
C2380       C  0.84578570  0.47812528  0.56665845    -0.02800
Br2381     Br  0.87015359  0.44182222  0.56893047    -0.02500
H2382       H  0.82288096  0.46856520  0.60740414     0.09660
H2383       H  0.83256040  0.54034068  0.52552593     0.07680
Br2384     Br  0.78480847  0.06673608  0.56506399    -0.02930
C2385       C  0.51659797  0.36930401  0.56183888    -0.09560
C2386       C  0.51354199  0.39749711  0.57308757     0.06630
C2387       C  0.51330495  0.40145490  0.60491889    -0.03330
C2388       C  0.51233420  0.37773435  0.62426069    -0.07780
C2389       C  0.51270341  0.34962552  0.61289020     0.05750
C2390       C  0.51654382  0.34537965  0.58163037    -0.02800
Br2391     Br  0.52034784  0.30748399  0.56507049    -0.02500
H2392       H  0.51783547  0.36587226  0.53755219     0.09660
H2393       H  0.51076625  0.38129069  0.64844064     0.07680
Br2394     Br  0.51593459  0.43863783  0.62369189    -0.02930
C2395       C  0.00001827  0.13288069  0.88562480    -0.09560
C2396       C  0.97381173  0.11427146  0.87926649     0.06630
C2397       C  0.94735809  0.12289622  0.85728675    -0.03330
C2398       C  0.94815483  0.14907240  0.84122911    -0.07780
C2399       C  0.97506955  0.16716951  0.84670561     0.05750
C2400       C  0.00066532  0.15913177  0.86981424    -0.02800
Br2401     Br  0.53700973  0.18355880  0.88079654    -0.02500
H2402       H  0.02019052  0.12691043  0.90287426     0.09660
H2403       H  0.92859381  0.15448523  0.82325994     0.07680
Br2404     Br  0.91107223  0.09840699  0.84651222    -0.02930
C2405       C  0.66018489  0.14616882  0.61915527    -0.09560
C2406       C  0.62636551  0.15233858  0.62472402     0.06630
C2407       C  0.61845631  0.14645162  0.65489136    -0.03330
C2408       C  0.63928091  0.12754357  0.67349496    -0.07780
C2409       C  0.66859336  0.11591511  0.66328423     0.05750
C2410       C  0.68107365  0.12818105  0.63810461    -0.02800
Br2411     Br  0.72457508  0.11853991  0.62629548    -0.02500
H2412       H  0.66936676  0.15138092  0.59767843     0.09660
H2413       H  0.63137424  0.12045869  0.69506496     0.07680
Br2414     Br  0.58410718  0.16510791  0.67498289    -0.02930
C2415       C  0.54555689  0.14839529  0.61386064    -0.09560
C2416       C  0.56515969  0.16721135  0.59876197     0.06630
C2417       C  0.54806922  0.19288731  0.58528242    -0.03330
C2418       C  0.51784235  0.20169019  0.59527167    -0.07780
C2419       C  0.50767341  0.18794653  0.62044062     0.05750
C2420       C  0.51560497  0.15846238  0.62360479    -0.02800
Br2421     Br  0.49167114  0.13385815  0.64785510    -0.02500
H2422       H  0.55480275  0.12692545  0.62055408     0.09660
H2423       H  0.50710930  0.22278275  0.58873025     0.07680
Br2424     Br  0.56104658  0.21895979  0.55445879    -0.02930
C2425       C  0.65795159  0.21696353  0.58851750    -0.09560
C2426       C  0.67474004  0.20629602  0.56465685     0.06630
C2427       C  0.65921781  0.18674225  0.54354366    -0.03330
C2428       C  0.63150744  0.17338152  0.55107128    -0.07780
C2429       C  0.61798420  0.18003698  0.57844374     0.05750
C2430       C  0.62880309  0.20503889  0.59485647    -0.02800
Br2431     Br  0.60938370  0.22086122  0.62971140    -0.02500
H2432       H  0.66792066  0.23432999  0.60260936     0.09660
H2433       H  0.62327715  0.15590839  0.53667234     0.07680
Br2434     Br  0.67260935  0.17636585  0.00390750    -0.02930
C2435       C  0.61278681  0.10176447  0.59378857    -0.09560
C2436       C  0.59874443  0.12719974  0.57845985     0.06630
C2437       C  0.57896973  0.12302135  0.55002970    -0.03330
C2438       C  0.57415324  0.09540509  0.53893069    -0.07780
C2439       C  0.58728431  0.07149386  0.55576151     0.05750
C2440       C  0.60771412  0.07458706  0.58252404    -0.02800
Br2441     Br  0.62469800  0.04195667  0.60710946    -0.02500
H2442       H  0.62556640  0.10149630  0.61629018     0.09660
H2443       H  0.55733787  0.09237725  0.51842968     0.07680
Br2444     Br  0.55448294  0.15226816  0.52539527    -0.02930
C2445       C  0.91750682  0.37526313  0.91965392    -0.09560
C2446       C  0.88783129  0.37373770  0.89970907     0.06630
C2447       C  0.86216140  0.39312531  0.90708224    -0.03330
C2448       C  0.87091363  0.42049636  0.91739080    -0.07780
C2449       C  0.90456100  0.42550050  0.92520264     0.05750
C2450       C  0.92645654  0.40167712  0.93178712    -0.02800
Br2451     Br  0.96951097  0.40466288  0.95397012    -0.02500
H2452       H  0.93640291  0.35818780  0.92158252     0.09660
H2453       H  0.85211590  0.43761761  0.91803447     0.07680
Br2454     Br  0.82273266  0.37877940  0.92132863    -0.02930
C2455       C  0.79849556  0.33871589  0.84623550    -0.09560
C2456       C  0.80390032  0.30945412  0.85153157     0.06630
C2457       C  0.83439721  0.29743989  0.84471244    -0.03330
C2458       C  0.86194799  0.31449811  0.84826021    -0.07780
C2459       C  0.85859619  0.34385475  0.85642309     0.05750
C2460       C  0.82540895  0.35648032  0.85048109    -0.02800
Br2461     Br  0.81218500  0.39669887  0.84657377    -0.02500
H2462       H  0.77353032  0.34811750  0.84575556     0.09660
H2463       H  0.88542521  0.30430895  0.84439533     0.07680
Br2464     Br  0.84025093  0.25716472  0.83687876    -0.02930
C2465       C  0.89190202  0.41432266  0.84827780    -0.09560
C2466       C  0.88773148  0.38534313  0.84104893     0.06630
C2467       C  0.88167839  0.37877789  0.80922904    -0.03330
C2468       C  0.86700180  0.39991066  0.78937762    -0.07780
C2469       C  0.86158797  0.42749978  0.80046656     0.05750
C2470       C  0.87852880  0.43571219  0.82828112    -0.02800
Br2471     Br  0.88364312  0.47511612  0.83999652    -0.02500
H2472       H  0.90536425  0.42023937  0.86926789     0.09660
H2473       H  0.85718286  0.39415922  0.76638985     0.07680
Br2474     Br  0.89040471  0.34211640  0.79120964    -0.02930
C2475       C  0.95058186  0.36239711  0.85590324    -0.09560
C2476       C  0.92399648  0.34667452  0.86557232     0.06630
C2477       C  0.93336762  0.31917021  0.87845718    -0.03330
C2478       C  0.96096826  0.30469914  0.86810735    -0.07780
C2479       C  0.97731339  0.31808025  0.84550175     0.05750
C2480       C  0.97808568  0.34798787  0.84631368    -0.02800
Br2481     Br  0.00794930  0.36946096  0.82449290    -0.02500
H2482       H  0.94911817  0.38545769  0.85310511     0.09660
H2483       H  0.96498604  0.28190523  0.87272041     0.07680
Br2484     Br  0.90971002  0.30029812  0.90825744    -0.02930
C2485       C  0.88946512  0.86194863  0.36630772    -0.02890
C2486       C  0.60120999  0.65704520  0.09508170    -0.02890
C2487       C  0.56054060  0.91896503  0.42557686     0.42050
N2488       N  0.52732319  0.95625605  0.42949894     0.00940
C2489       C  0.53618165  0.54286143  0.05550212    -0.06930
H2490       H  0.96624934  0.95041530  0.06832956     0.06430
C2491       C  0.88076606  0.00655946  0.49311090    -0.07290
Co2492     Co  0.54570458  0.98024038  0.49069702     0.74180
N2493       N  0.99569573  0.96680228  0.03439572    -0.26460
Co2494     Co  0.97828138  0.00933248  0.02682481     0.74070
C2495       C  0.87809174  0.99524820  0.52415220     0.42150
N2496       N  0.93232073  0.99561771  0.42707827     0.00560
N2497       N  0.92981086  0.99747368  0.01595418     0.00660
N2498       N  0.57875378  0.52558897  0.03011352    -0.47310
H2499       H  0.57710282  0.91915371  0.47663018     0.06420
N2500       N  0.52132983  0.95581556  0.02130545     0.00950
N2501       N  0.96046616  0.55233963  0.01792948     0.00690
C2502       C  0.93567964  0.59379266  0.02229389     0.42290
N2503       N  0.95761691  0.98366179  0.41403199    -0.25920
C2504       C  0.60316061  0.50545171  0.45630879    -0.06840
N2505       N  0.54056543  0.93901972  0.40931782    -0.47030
N2506       N  0.95261733  0.57192871  0.03830402    -0.47250
C2507       C  0.60653282  0.51531074  0.42486375     0.42070
N2508       N  0.55135282  0.51166610  0.02299193     0.00940
N2509       N  0.98751846  0.54100346  0.41181746    -0.25940
N2510       N  0.53970677  0.94958488  0.45768750    -0.26430
N2511       N  0.96214784  0.55204534  0.42517946     0.00580
H2512       H  0.01750740  0.55840035  0.37854681     0.06470
H2513       H  0.91617096  0.59465906  0.47156493     0.06500
N2514       N  0.52603383  0.52189140  0.03692673    -0.26480
N2515       N  0.91365794  0.00701091  0.49008766    -0.26100
N2516       N  0.55444310  0.51179889  0.43168599     0.00940
C2517       C  0.50904690  0.92246243  0.05175262     0.42340
C2518       C  0.94970744  0.95702021  0.40585085    -0.07350
N2519       N  0.94766614  0.55955471  0.48996675    -0.26090
H2520       H  0.86133260  0.01610290  0.47710449     0.06490
N2521       N  0.53024853  0.92936520  0.03121700    -0.47320
H2522       H  0.96677601  0.94082859  0.39809991     0.06470
C2523       C  0.97465539  0.58605454  0.39552375     0.42170
C2524       C  0.55949907  0.92606237  0.45758106    -0.06840
Co2525     Co  0.50611109  0.49849762  0.42071230     0.73820
N2526       N  0.90804430  0.97789739  0.42951599    -0.47030
C2527       C  0.57083803  0.54504904  0.05091414     0.42440
N2528       N  0.57507782  0.51797429  0.41117665    -0.47020
Co2529     Co  0.93882243  0.52880202  0.45718298     0.73890
C2530       C  0.93274085  0.58548155  0.49026624    -0.07350
C2531       C  0.98600635  0.94720579  0.05367978    -0.06910
N2532       N  0.57023408  0.50377773  0.45841371    -0.26440
N2533       N  0.90972074  0.99074112  0.03671224    -0.47200
H2534       H  0.02054479  0.55648497  0.06848690     0.06450
C2535       C  0.99736197  0.56109492  0.39283926    -0.07330
Cl2536     Cl  0.99233180  0.50425481  0.47381821    -0.50330
C2537       C  0.91755414  0.95308008  0.41730762     0.42200
H2538       H  0.62243011  0.49654542  0.47290603     0.06410
N2539       N  0.95358447  0.57875653  0.41595877    -0.47040
C2540       C  0.85431023  0.79242336  0.03400130     0.42050
N2541       N  0.83137404  0.77829442  0.48999992     0.00940
C2542       C  0.66802773  0.82171206  0.44385880    -0.06930
H2543       H  0.69781308  0.80716538  0.06022318     0.06430
C2544       C  0.72802061  0.70603735  0.04110609    -0.07270
Co2545     Co  0.76938611  0.81552382  0.47143733     0.74180
N2546       N  0.72518592  0.80806008  0.02056878    -0.26460
Co2547     Co  0.70387460  0.77860064  0.48916542     0.74070
C2548       C  0.70416512  0.72069858  0.05881679     0.42150
N2549       N  0.79291970  0.70276392  0.49810722     0.00560
N2550       N  0.71232084  0.74721347  0.02133432     0.00660
N2551       N  0.70983720  0.84958520  0.43309092    -0.47310
H2552       H  0.82014863  0.83241997  0.03304061     0.06420
N2553       N  0.75035906  0.82295819  0.01358484     0.00950
N2554       N  0.68377921  0.74958231  0.45705967     0.00690
C2555       C  0.65831922  0.73401118  0.41521386     0.42290
N2556       N  0.81833286  0.71689394  0.49040224    -0.25920
C2557       C  0.77780238  0.81796612  0.40238476    -0.06840
N2558       N  0.85394952  0.77102840  0.01318481    -0.47030
N2559       N  0.65949127  0.75597750  0.43520745    -0.47250
C2560       C  0.79143689  0.79909133  0.37962928     0.42070
N2561       N  0.72121733  0.82658556  0.44979393     0.00940
N2562       N  0.78957123  0.71801731  0.42610617    -0.25940
N2563       N  0.81567857  0.80305517  0.49487373    -0.26430
N2564       N  0.76419255  0.70460125  0.43501545     0.00580
H2565       H  0.81603345  0.71232456  0.38563741     0.06470
H2566       H  0.69230270  0.69365356  0.41601484     0.06500
N2567       N  0.69687625  0.81075923  0.45685947    -0.26480
N2568       N  0.72892244  0.72307814  0.51692635    -0.26100
N2569       N  0.80200149  0.78046521  0.42450146     0.00940
C2570       C  0.74061025  0.83837310  0.05831611     0.42340
C2571       C  0.84637594  0.70472368  0.50420027    -0.07350
N2572       N  0.69939005  0.72482509  0.45233812    -0.26090
H2573       H  0.73688479  0.68379354  0.04248169     0.06490
N2574       N  0.76019150  0.84137701  0.03534890    -0.47320
H2575       H  0.87122907  0.71054616  0.50037598     0.06470
C2576       C  0.77146208  0.68377746  0.39225762     0.42170
C2577       C  0.82924342  0.81374247  0.02153524    -0.06840
Co2578     Co  0.81159433  0.74891509  0.45726090     0.73820
N2579       N  0.80225979  0.68024575  0.51598526    -0.47030
C2580       C  0.67624284  0.84732340  0.42784719     0.42440
N2581       N  0.80606778  0.77640158  0.39536782    -0.47020
Co2582     Co  0.74579131  0.71323969  0.47601696     0.73890
C2583       C  0.68423605  0.71304506  0.42696420    -0.07350
C2584       C  0.71731152  0.81605380  0.04847330    -0.06910
N2585       N  0.78578255  0.80488877  0.42938183    -0.26440
N2586       N  0.69794344  0.74701906  0.04674012    -0.47200
H2587       H  0.64386770  0.81426181  0.44789086     0.06450
C2588       C  0.79604741  0.70649138  0.39872812    -0.07330
Cl2589     Cl  0.75767805  0.76411735  0.47335217    -0.50330
C2590       C  0.83581380  0.68038163  0.02127075     0.42200
H2591       H  0.76332337  0.83791863  0.39890613     0.06410
N2592       N  0.75315404  0.68449460  0.41602875    -0.47040
C2593       C  0.59707115  0.73767465  0.29063313     0.42050
N2594       N  0.55763478  0.72666275  0.25680103     0.00940
C2595       C  0.98061371  0.82929217  0.15542290    -0.06930
H2596       H  0.50943048  0.86973476  0.24770669     0.06430
C2597       C  0.95241076  0.78118337  0.30618502    -0.07290
Co2598     Co  0.54450955  0.77283146  0.20778471     0.74180
N2599       N  0.52128906  0.82565850  0.23761303    -0.26460
Co2600     Co  0.97489099  0.80926717  0.22187372     0.74070
C2601       C  0.97137899  0.80614162  0.31475568     0.42150
N2602       N  0.96703936  0.71991225  0.28616900     0.00560
N2603       N  0.96204903  0.80501318  0.26589196     0.00660
N2604       N  0.52857740  0.80620004  0.14620629    -0.47310
H2605       H  0.60750167  0.77840301  0.26402000     0.06420
N2606       N  0.54898401  0.81198342  0.23158736     0.00950
N2607       N  0.92998050  0.79375409  0.20312530     0.00690
C2608       C  0.89374332  0.78420211  0.16519391     0.42290
N2609       N  0.99662719  0.70861662  0.28233196    -0.25920
C2610       C  0.52883584  0.73219015  0.15295449    -0.06840
N2611       N  0.57314346  0.71891312  0.28369837    -0.47030
N2612       N  0.91639873  0.80292686  0.17597549    -0.47250
C2613       C  0.51237806  0.70476863  0.14850784     0.42070
N2614       N  0.51793020  0.79705052  0.17213857     0.00940
N2615       N  0.96737626  0.69270623  0.22300300    -0.25940
N2616       N  0.56946089  0.75009984  0.24551991    -0.26430
N2617       N  0.93931903  0.70758258  0.22467243     0.00580
H2618       H  0.97835762  0.64751483  0.21711380     0.06470
H2619       H  0.88299985  0.74110368  0.18749074     0.06500
N2620       N  0.99049943  0.81098263  0.17830944    -0.26480
N2621       N  0.94879309  0.78157219  0.27557151    -0.26100
N2622       N  0.52525481  0.71146127  0.19620177     0.00940
C2623       C  0.56358231  0.85585256  0.24111656     0.42340
C2624       C  0.50673813  0.69064640  0.30551344    -0.07350
N2625       N  0.91819399  0.76918288  0.21146294    -0.26090
H2626       H  0.94685942  0.76354719  0.32057518     0.06490
N2627       N  0.57453887  0.82926935  0.23291368    -0.47320
H2628       H  0.52779077  0.67556590  0.30596199     0.06470
C2629       C  0.92409701  0.66447103  0.21491145     0.42170
C2630       C  0.59473777  0.75855099  0.26542858    -0.06840
Co2631     Co  0.51303052  0.70970684  0.23958509     0.73820
N2632       N  0.95520471  0.70893557  0.31081701    -0.47030
C2633       C  0.50563346  0.82608183  0.13383325     0.42440
N2634       N  0.51190671  0.69315843  0.17622940    -0.47020
Co2635     Co  0.94168483  0.74515280  0.24944382     0.73890
C2636       C  0.89494336  0.76148626  0.18885279    -0.07350
C2637       C  0.52807976  0.85305736  0.24468944    -0.06910
N2638       N  0.53533978  0.73484819  0.18340189    -0.26440
N2639       N  0.97548328  0.82037858  0.28876261    -0.47200
H2640       H  0.96086875  0.84558530  0.15578718     0.06450
C2641       C  0.96031006  0.66531363  0.21638621    -0.07330
Cl2642     Cl  0.99365395  0.75937352  0.22985387    -0.50330
C2643       C  0.97953831  0.69098541  0.32482280     0.42200
H2644       H  0.53155443  0.74874085  0.13618345     0.06410
N2645       N  0.91305417  0.69148530  0.22057291    -0.47040
C2646       C  0.69933447  0.99572555  0.33512354     0.42050
N2647       N  0.73362502  0.00533606  0.30178641     0.00940
C2648       C  0.69336596  0.56343734  0.15912429    -0.06930
H2649       H  0.66407180  0.94556546  0.17578576     0.06430
C2650       C  0.78172638  0.92931876  0.18070154    -0.07290
Co2651     Co  0.69475401  0.53053220  0.24648589     0.74180
N2652       N  0.67835910  0.98412441  0.20035444    -0.26460
Co2653     Co  0.71698943  0.00039377  0.17704749     0.74070
C2654       C  0.75387795  0.91752546  0.16081704     0.42150
N2655       N  0.80589591  0.96921939  0.25095189     0.00560
N2656       N  0.73985169  0.95970929  0.17675515     0.00660
N2657       N  0.67868360  0.58007050  0.20448418    -0.47310
H2658       H  0.65432513  0.00645311  0.30079671     0.06420
N2659       N  0.66986572  0.99523877  0.22630740     0.00950
N2660       N  0.75739845  0.51448796  0.15378461     0.00690
C2661       C  0.79138609  0.51882721  0.11867644     0.42290
N2662       N  0.79721047  0.98020523  0.27690382    -0.25920
C2663       C  0.71258612  0.59274740  0.27505300    -0.06840
N2664       N  0.73212414  0.99884035  0.33134926    -0.47030
N2665       N  0.75868741  0.51775647  0.12363176    -0.47250
C2666       C  0.74290897  0.60472152  0.29121759     0.42070
N2667       N  0.68791023  0.55264431  0.20604648     0.00940
N2668       N  0.81270393  0.53619884  0.25592283    -0.25940
N2669       N  0.70359477  0.00863210  0.28723302    -0.26430
N2670       N  0.82074050  0.52571030  0.22959792     0.00580
H2671       H  0.82932719  0.57223193  0.28299612     0.06470
H2672       H  0.83631455  0.50916064  0.15341332     0.06500
N2673       N  0.69669347  0.54217792  0.17992659    -0.26480
N2674       N  0.77078560  0.95558660  0.18903488    -0.26100
N2675       N  0.75230569  0.56063018  0.27878551     0.00940
C2676       C  0.64088584  0.95719599  0.22009609     0.42340
C2677       C  0.81325431  0.96557215  0.30028730    -0.07350
N2678       N  0.78746997  0.51142404  0.16825019    -0.26090
H2679       H  0.80675885  0.92072997  0.18619986     0.06490
N2680       N  0.64789302  0.97962614  0.23895057    -0.47320
H2681       H  0.81336064  0.97133310  0.32415943     0.06470
C2682       C  0.85132380  0.56238090  0.23747950     0.42170
C2683       C  0.68081006  0.00248337  0.30588154    -0.06840
Co2684     Co  0.77430589  0.52018696  0.27887510     0.73820
N2685       N  0.82828299  0.94794135  0.25527292    -0.47030
C2686       C  0.68216772  0.58856430  0.17590631     0.42440
N2687       N  0.76575628  0.58293355  0.29304248    -0.47020
Co2688     Co  0.79653545  0.99040986  0.20979846     0.73890
C2689       C  0.81009625  0.51460805  0.14849307    -0.07350
C2690       C  0.66125974  0.96011949  0.19460191    -0.06910
N2691       N  0.72115897  0.56540421  0.26766260    -0.26440
N2692       N  0.72909676  0.93789434  0.15978566    -0.47200
H2693       H  0.69919022  0.56164703  0.13566558     0.06450
C2694       C  0.83103711  0.55901331  0.26296712    -0.07330
Cl2695     Cl  0.74564651  0.01019626  0.22807009    -0.50330
C2696       C  0.83441124  0.94503647  0.28569268     0.42200
H2697       H  0.68802605  0.60279114  0.27069119     0.06410
N2698       N  0.84339990  0.54090992  0.21764786    -0.47040
C2699       C  0.91042878  0.61346968  0.20349840    -0.09560
C2700       C  0.90525777  0.63852871  0.22043798     0.06630
C2701       C  0.88325831  0.63784217  0.24344851    -0.03330
C2702       C  0.86643653  0.61291136  0.24838953    -0.07780
C2703       C  0.87089269  0.58789477  0.23114663     0.05750
C2704       C  0.89346293  0.58834894  0.20849304    -0.02800
Br2705     Br  0.90330856  0.55540999  0.18426336    -0.02500
H2706       H  0.92772200  0.61345261  0.18618719     0.09660
H2707       H  0.84960009  0.61341725  0.26601672     0.07680
Br2708     Br  0.87637718  0.66927418  0.27076614    -0.02930
C2709       C  0.58675910  0.93245571  0.21838223    -0.09560
C2710       C  0.62099998  0.93199249  0.22732066     0.06630
C2711       C  0.63584474  0.90689158  0.24170683    -0.03330
C2712       C  0.61673761  0.88276663  0.24623084    -0.07780
C2713       C  0.58230962  0.88293864  0.23711532     0.05750
C2714       C  0.56745017  0.90855418  0.22307342    -0.02800
Br2715     Br  0.52162692  0.91241327  0.20718380    -0.02500
H2716       H  0.57497570  0.95143526  0.20700972     0.09660
H2717       H  0.62894821  0.86368834  0.25699894     0.07680
Br2718     Br  0.68230588  0.90474724  0.25560797    -0.02930
C2719       C  0.72128810  0.88324297  0.12788665    -0.09560
C2720       C  0.75279016  0.89325307  0.13834321     0.06630
C2721       C  0.78045647  0.88260020  0.12380337    -0.03330
C2722       C  0.77574597  0.86393349  0.09871768    -0.07780
C2723       C  0.74400258  0.85527118  0.08732175     0.05750
C2724       C  0.71660759  0.86469473  0.10277010    -0.02800
Br2725     Br  0.67156414  0.85617001  0.08905891    -0.02500
H2726       H  0.69963675  0.89103427  0.13849466     0.09660
H2727       H  0.79715218  0.85674524  0.08739652     0.07680
Br2728     Br  0.82507931  0.89402254  0.13440620    -0.02930
C2729       C  0.73477120  0.62267874  0.34286043    -0.09560
C2730       C  0.74582238  0.62803424  0.31433661     0.06630
C2731       C  0.76621303  0.65163253  0.31141919    -0.03330
C2732       C  0.77466033  0.66962271  0.33671831    -0.07780
C2733       C  0.76385218  0.66401560  0.36560006     0.05750
C2734       C  0.74387436  0.63977809  0.36831384    -0.02800
Br2735     Br  0.73029205  0.62614065  0.40641755    -0.02500
H2736       H  0.72059882  0.60378504  0.34588050     0.09660
H2737       H  0.78982137  0.68788485  0.33379661     0.07680
Br2738     Br  0.78337421  0.65964260  0.27328654    -0.02930
C2739       C  0.64742119  0.73594488  0.32779856    -0.09560
C2740       C  0.61309839  0.74082342  0.32209579     0.06630
C2741       C  0.59414496  0.74589259  0.34698420    -0.03330
C2742       C  0.60936967  0.74393500  0.37712832    -0.07780
C2743       C  0.64346762  0.73713734  0.38298855     0.05750
C2744       C  0.66276927  0.73447431  0.35787162    -0.02800
Br2745     Br  0.71028384  0.73116668  0.36264225    -0.02500
H2746       H  0.66229895  0.73280466  0.30878642     0.09660
H2747       H  0.59443160  0.74732168  0.39605456     0.07680
Br2748     Br  0.54762923  0.75645117  0.34086480    -0.02930
C2749       C  0.84043381  0.78500421  0.08804587    -0.09560
C2750       C  0.86462297  0.78783812  0.06735830     0.06630
C2751       C  0.89824990  0.78713122  0.07904731    -0.03330
C2752       C  0.90722869  0.78481262  0.11080151    -0.07780
C2753       C  0.88310521  0.78245828  0.13163830     0.05750
C2754       C  0.84945339  0.78203830  0.11984782    -0.02800
Br2755     Br  0.81498615  0.77935623  0.14650027    -0.02500
H2756       H  0.81437715  0.78542352  0.07946372     0.09660
H2757       H  0.93325676  0.78537806  0.11931877     0.07680
Br2758     Br  0.93247843  0.79102295  0.05239311    -0.02930
C2759       C  0.89082437  0.66125535  0.04383832    -0.09560
C2760       C  0.85831116  0.65554034  0.03146579     0.06630
C2761       C  0.85076640  0.62694078  0.02364809    -0.03330
C2762       C  0.87625668  0.60562355  0.02552149    -0.07780
C2763       C  0.90945297  0.61235891  0.03399542     0.05750
C2764       C  0.91635632  0.63998109  0.04483405    -0.02800
Br2765     Br  0.96095990  0.65050867  0.05681891    -0.02500
H2766       H  0.89703897  0.68299645  0.05023139     0.09660
H2767       H  0.87071363  0.58436366  0.01690192     0.07680
Br2768     Br  0.80813168  0.61623339  0.50486038    -0.02930
C2769       C  0.62200135  0.91590114  0.42382524    -0.09560
C2770       C  0.59073046  0.90438418  0.41516688     0.06630
C2771       C  0.58983190  0.87590406  0.40491383    -0.03330
C2772       C  0.61929542  0.85918637  0.40463732    -0.07780
C2773       C  0.65014636  0.86949462  0.41669126     0.05750
C2774       C  0.65155526  0.89874580  0.42489757    -0.02800
Br2775     Br  0.69181673  0.91530255  0.44215243    -0.02500
H2776       H  0.62313878  0.93751817  0.43284446     0.09660
H2777       H  0.61750082  0.83676906  0.39833315     0.07680
Br2778     Br  0.54882681  0.85691076  0.39756910    -0.02930
C2779       C  0.68592514  0.51963079  0.38422190    -0.09560
C2780       C  0.68263278  0.99618208  0.36402398     0.06630
C2781       C  0.65627716  0.97766047  0.36679086    -0.03330
C2782       C  0.63281993  0.48364740  0.38761280    -0.07780
C2783       C  0.63498286  0.50781291  0.40666544     0.05750
C2784       C  0.66244412  0.52542835  0.40547223    -0.02800
Br2785     Br  0.66689140  0.55913792  0.43028285    -0.02500
H2786       H  0.70528198  0.53466908  0.38195610     0.09660
H2787       H  0.61187116  0.96993479  0.38798311     0.07680
Br2788     Br  0.64993045  0.94470629  0.34092484    -0.02930
C2789       C  0.82420949  0.98412539  0.08919500    -0.09560
C2790       C  0.80611947  0.51053133  0.08977296     0.06630
C2791       C  0.80831135  0.53022230  0.06565687    -0.03330
C2792       C  0.82983887  0.02416987  0.04278316    -0.07780
C2793       C  0.84983612  0.99860325  0.04367810     0.05750
C2794       C  0.84578562  0.97812532  0.06665842    -0.02800
Br2795     Br  0.87015350  0.94182226  0.06893044    -0.02500
H2796       H  0.82288085  0.96856524  0.10740409     0.09660
H2797       H  0.83256035  0.04034072  0.02552590     0.07680
Br2798     Br  0.78480847  0.56673609  0.06506397    -0.02930
C2799       C  0.51659792  0.86930403  0.06183889    -0.09560
C2800       C  0.51354194  0.89749712  0.07308760     0.06630
C2801       C  0.51330489  0.90145491  0.10491891    -0.03330
C2802       C  0.51233415  0.87773435  0.12426071    -0.07780
C2803       C  0.51270337  0.84962553  0.11289022     0.05750
C2804       C  0.51654377  0.84537966  0.08163039    -0.02800
Br2805     Br  0.52034778  0.80748400  0.06507049    -0.02500
H2806       H  0.51783542  0.86587228  0.03755221     0.09660
H2807       H  0.51076620  0.88129069  0.14844066     0.07680
Br2808     Br  0.51593452  0.93863783  0.12369192    -0.02930
C2809       C  0.00001828  0.63288071  0.38562482    -0.09560
C2810       C  0.97381175  0.61427147  0.37926651     0.06630
C2811       C  0.94735811  0.62289622  0.35728677    -0.03330
C2812       C  0.94815483  0.64907240  0.34122913    -0.07780
C2813       C  0.97506955  0.66716952  0.34670563     0.05750
C2814       C  0.00066532  0.65913179  0.36981426    -0.02800
Br2815     Br  0.53700973  0.68355881  0.38079654    -0.02500
H2816       H  0.02019053  0.62691046  0.40287429     0.09660
H2817       H  0.92859382  0.65448522  0.32325996     0.07680
Br2818     Br  0.91107226  0.59840698  0.34651224    -0.02930
C2819       C  0.66018489  0.64616884  0.11915529    -0.09560
C2820       C  0.62636551  0.65233861  0.12472403     0.06630
C2821       C  0.61845631  0.64645165  0.15489138    -0.03330
C2822       C  0.63928091  0.62754360  0.17349497    -0.07780
C2823       C  0.66859336  0.61591514  0.16328424     0.05750
C2824       C  0.68107364  0.62818108  0.13810462    -0.02800
Br2825     Br  0.72457508  0.61853994  0.12629549    -0.02500
H2826       H  0.66936675  0.65138094  0.09767844     0.09660
H2827       H  0.63137423  0.62045871  0.19506498     0.07680
Br2828     Br  0.58410718  0.66510794  0.17498291    -0.02930
C2829       C  0.54555689  0.64839532  0.11386066    -0.09560
C2830       C  0.56515969  0.66721139  0.09876200     0.06630
C2831       C  0.54806922  0.69288734  0.08528245    -0.03330
C2832       C  0.51784234  0.70169022  0.09527168    -0.07780
C2833       C  0.50767340  0.68794654  0.12044064     0.05750
C2834       C  0.51560496  0.65846240  0.12360480    -0.02800
Br2835     Br  0.49167113  0.63385816  0.14785510    -0.02500
H2836       H  0.55480275  0.62692548  0.12055410     0.09660
H2837       H  0.50710928  0.72278277  0.08873027     0.07680
Br2838     Br  0.56104658  0.71895984  0.05445884    -0.02930
C2839       C  0.65795161  0.71696355  0.08851752    -0.09560
C2840       C  0.67474006  0.70629603  0.06465687     0.06630
C2841       C  0.65921782  0.68674227  0.04354368    -0.03330
C2842       C  0.63150744  0.67338155  0.05107130    -0.07780
C2843       C  0.61798420  0.68003701  0.07844376     0.05750
C2844       C  0.62880311  0.70503892  0.09485649    -0.02800
Br2845     Br  0.60938372  0.72086126  0.12971142    -0.02500
H2846       H  0.66792069  0.73433000  0.10260938     0.09660
H2847       H  0.62327713  0.65590843  0.03667236     0.07680
Br2848     Br  0.67260937  0.67636588  0.50390750    -0.02930
C2849       C  0.61278680  0.60176450  0.09378858    -0.09560
C2850       C  0.59874442  0.62719978  0.07845987     0.06630
C2851       C  0.57896971  0.62302140  0.05002972    -0.03330
C2852       C  0.57415321  0.59540514  0.03893071    -0.07780
C2853       C  0.58728429  0.57149391  0.05576152     0.05750
C2854       C  0.60771411  0.57458710  0.08252405    -0.02800
Br2855     Br  0.62469799  0.54195670  0.10710945    -0.02500
H2856       H  0.62556640  0.60149634  0.11629019     0.09660
H2857       H  0.55733784  0.59237730  0.01842970     0.07680
Br2858     Br  0.55448292  0.65226822  0.02539530    -0.02930
C2859       C  0.91750671  0.87526317  0.41965383    -0.09560
C2860       C  0.88783120  0.87373774  0.39970895     0.06630
C2861       C  0.86216131  0.89312538  0.40708208    -0.03330
C2862       C  0.87091355  0.92049644  0.41739062    -0.07780
C2863       C  0.90456092  0.92550056  0.42520249     0.05750
C2864       C  0.92645644  0.90167717  0.43178700    -0.02800
Br2865     Br  0.96951086  0.90466292  0.45397003    -0.02500
H2866       H  0.93640278  0.85818783  0.42158247     0.09660
H2867       H  0.85211583  0.93761770  0.41803425     0.07680
Br2868     Br  0.82273254  0.87877952  0.42132846    -0.02930
C2869       C  0.79849551  0.83871587  0.34623544    -0.09560
C2870       C  0.80390029  0.80945411  0.35153155     0.06630
C2871       C  0.83439718  0.79743988  0.34471240    -0.03330
C2872       C  0.86194795  0.81449811  0.34826013    -0.07780
C2873       C  0.85859615  0.84385476  0.35642298     0.05750
C2874       C  0.82540890  0.85648031  0.35048098    -0.02800
Br2875     Br  0.81218494  0.89669885  0.34657357    -0.02500
H2876       H  0.77353027  0.84811748  0.34575552     0.09660
H2877       H  0.88542518  0.80430896  0.34439525     0.07680
Br2878     Br  0.84025092  0.75716471  0.33687876    -0.02930
C2879       C  0.89190201  0.91432266  0.34827768    -0.09560
C2880       C  0.88773145  0.88534313  0.34104882     0.06630
C2881       C  0.88167835  0.87877789  0.30922892    -0.03330
C2882       C  0.86700179  0.89991066  0.28937750    -0.07780
C2883       C  0.86158798  0.92749979  0.30046643     0.05750
C2884       C  0.87852881  0.93571219  0.32828099    -0.02800
Br2885     Br  0.88364318  0.97511613  0.33999637    -0.02500
H2886       H  0.90536426  0.92023938  0.36926775     0.09660
H2887       H  0.85718283  0.89415922  0.26638973     0.07680
Br2888     Br  0.89040465  0.84211639  0.29120955    -0.02930
C2889       C  0.95058182  0.86239712  0.35590320    -0.09560
C2890       C  0.92399642  0.84667454  0.36557226     0.06630
C2891       C  0.93336755  0.81917024  0.37845715    -0.03330
C2892       C  0.96096821  0.80469916  0.36810735    -0.07780
C2893       C  0.97731336  0.81808025  0.34550176     0.05750
C2894       C  0.97808566  0.84798787  0.34631368    -0.02800
Br2895     Br  0.00794930  0.86946095  0.32449290    -0.02500
H2896       H  0.94911813  0.88545769  0.35310504     0.09660
H2897       H  0.96498599  0.78190525  0.37272043     0.07680
Br2898     Br  0.90970992  0.80029816  0.40825740    -0.02930
C2899       C  0.88946519  0.86194865  0.86630779    -0.02890
C2900       C  0.60121000  0.65704519  0.59508169    -0.02890
C2901       C  0.56054058  0.91896504  0.92557690     0.42050
N2902       N  0.52732318  0.95625606  0.92949897     0.00940
C2903       C  0.53618166  0.54286142  0.55550211    -0.06930
H2904       H  0.96624936  0.95041528  0.56832955     0.06430
C2905       C  0.88076606  0.00655950  0.99311091    -0.07290
Co2906     Co  0.54570457  0.98024040  0.99069704     0.74180
N2907       N  0.99569574  0.96680226  0.53439570    -0.26460
Co2908     Co  0.97828139  0.00933245  0.52682479     0.74070
C2909       C  0.87809173  0.99524824  0.02415221     0.42150
N2910       N  0.93232073  0.99561773  0.92707830     0.00560
N2911       N  0.92981087  0.99747365  0.51595416     0.00660
N2912       N  0.57875380  0.52558896  0.53011350    -0.47310
H2913       H  0.57710282  0.91915372  0.97663021     0.06420
N2914       N  0.52132984  0.95581554  0.52130542     0.00950
N2915       N  0.96046621  0.55233963  0.51792950     0.00690
C2916       C  0.93567967  0.59379265  0.52229393     0.42290
N2917       N  0.95761691  0.98366180  0.91403202    -0.25920
C2918       C  0.60316060  0.50545172  0.95630881    -0.06840
N2919       N  0.54056541  0.93901972  0.90931785    -0.47030
N2920       N  0.95261736  0.57192869  0.53830405    -0.47250
C2921       C  0.60653280  0.51531075  0.92486377     0.42070
N2922       N  0.55135283  0.51166609  0.52299192     0.00940
N2923       N  0.98751841  0.54100343  0.91181744    -0.25940
N2924       N  0.53970677  0.94958489  0.95768753    -0.26430
N2925       N  0.96214778  0.55204531  0.92517944     0.00580
H2926       H  0.01750735  0.55840032  0.87854679     0.06470
H2927       H  0.91617091  0.59465905  0.97156490     0.06500
N2928       N  0.52603385  0.52189139  0.53692672    -0.26480
N2929       N  0.91365794  0.00701094  0.99008768    -0.26100
N2930       N  0.55444308  0.51179888  0.93168600     0.00940
C2931       C  0.50904692  0.92246240  0.55175261     0.42340
C2932       C  0.94970745  0.95702021  0.90585091    -0.07350
N2933       N  0.94766609  0.55955470  0.98996672    -0.26090
H2934       H  0.86133260  0.01610293  0.97710450     0.06490
N2935       N  0.53024855  0.92936517  0.53121698    -0.47320
H2936       H  0.96677603  0.94082859  0.89809999     0.06470
C2937       C  0.97465533  0.58605451  0.89552371     0.42170
C2938       C  0.55949906  0.92606238  0.95758110    -0.06840
Co2939     Co  0.50611107  0.49849761  0.92071232     0.73820
N2940       N  0.90804431  0.97789739  0.92951605    -0.47030
C2941       C  0.57083804  0.54504903  0.55091412     0.42440
N2942       N  0.57507780  0.51797429  0.91117666    -0.47020
Co2943     Co  0.93882239  0.52880200  0.95718297     0.73890
C2944       C  0.93274081  0.58548155  0.99026621    -0.07350
C2945       C  0.98600636  0.94720578  0.55367976    -0.06910
N2946       N  0.57023407  0.50377774  0.95841373    -0.26440
N2947       N  0.90972075  0.99074109  0.53671223    -0.47200
H2948       H  0.02054484  0.55648494  0.56848691     0.06450
C2949       C  0.99736192  0.56109489  0.89283923    -0.07330
Cl2950     Cl  0.99233176  0.50425481  0.97381821    -0.50330
C2951       C  0.91755417  0.95308008  0.91730771     0.42200
H2952       H  0.62243010  0.49654544  0.97290605     0.06410
N2953       N  0.95358442  0.57875650  0.91595874    -0.47040
C2954       C  0.85431027  0.79242334  0.53400129     0.42050
N2955       N  0.83137401  0.77829444  0.98999992     0.00940
C2956       C  0.66802770  0.82171205  0.94385879    -0.06930
H2957       H  0.69781314  0.80716537  0.56022320     0.06430
C2958       C  0.72802062  0.70603734  0.54110609    -0.07270
Co2959     Co  0.76938607  0.81552383  0.97143733     0.74180
N2960       N  0.72518596  0.80806008  0.52056879    -0.26460
Co2961     Co  0.70387457  0.77860064  0.98916541     0.74070
C2962       C  0.70416513  0.72069857  0.55881679     0.42150
N2963       N  0.79291968  0.70276393  0.99810722     0.00560
N2964       N  0.71232086  0.74721348  0.52133433     0.00660
N2965       N  0.70983716  0.84958520  0.93309091    -0.47310
H2966       H  0.82014868  0.83241996  0.53304059     0.06420
N2967       N  0.75035910  0.82295819  0.51358485     0.00950
N2968       N  0.68377918  0.74958231  0.95705966     0.00690
C2969       C  0.65831920  0.73401117  0.91521385     0.42290
N2970       N  0.81833284  0.71689396  0.99040224    -0.25920
C2971       C  0.77780236  0.81796614  0.90238476    -0.06840
N2972       N  0.85394955  0.77102838  0.51318480    -0.47030
N2973       N  0.65949124  0.75597748  0.93520745    -0.47250
C2974       C  0.79143689  0.79909136  0.87962929     0.42070
N2975       N  0.72121729  0.82658556  0.94979392     0.00940
N2976       N  0.78957122  0.71801733  0.92610617    -0.25940
N2977       N  0.81567853  0.80305519  0.99487373    -0.26430
N2978       N  0.76419254  0.70460127  0.93501544     0.00580
H2979       H  0.81603343  0.71232459  0.88563740     0.06470
H2980       H  0.69230269  0.69365355  0.91601484     0.06500
N2981       N  0.69687622  0.81075923  0.95685946    -0.26480
N2982       N  0.72892242  0.72307814  0.01692634    -0.26100
N2983       N  0.80200147  0.78046523  0.92450146     0.00940
C2984       C  0.74061032  0.83837309  0.55831613     0.42340
C2985       C  0.84637592  0.70472370  0.00420027    -0.07350
N2986       N  0.69939004  0.72482509  0.95233811    -0.26090
H2987       H  0.73688479  0.68379354  0.54248169     0.06490
N2988       N  0.76019156  0.84137700  0.53534891    -0.47320
H2989       H  0.87122906  0.71054618  0.00037598     0.06470
C2990       C  0.77146207  0.68377748  0.89225761     0.42170
C2991       C  0.82924346  0.81374245  0.52153523    -0.06840
Co2992     Co  0.81159431  0.74891511  0.95726090     0.73820
N2993       N  0.80225978  0.68024577  0.01598526    -0.47030
C2994       C  0.67624280  0.84732340  0.92784718     0.42440
N2995       N  0.80606778  0.77640161  0.89536783    -0.47020
Co2996     Co  0.74579130  0.71323970  0.97601695     0.73890
C2997       C  0.68423604  0.71304505  0.92696419    -0.07350
C2998       C  0.71731158  0.81605379  0.54847332    -0.06910
N2999       N  0.78578252  0.80488879  0.92938184    -0.26440
N3000       N  0.69794345  0.74701906  0.54674012    -0.47200
H3001       H  0.64386767  0.81426180  0.94789084     0.06450
C3002       C  0.79604740  0.70649140  0.89872812    -0.07330
Cl3003     Cl  0.75767802  0.76411736  0.97335217    -0.50330
C3004       C  0.83581382  0.68038161  0.52127076     0.42200
H3005       H  0.76332335  0.83791865  0.89890613     0.06410
N3006       N  0.75315404  0.68449462  0.91602874    -0.47040
C3007       C  0.59707116  0.73767462  0.79063312     0.42050
N3008       N  0.55763478  0.72666273  0.75680102     0.00940
C3009       C  0.98061372  0.82929215  0.65542289    -0.06930
H3010       H  0.50943052  0.86973474  0.74770671     0.06430
C3011       C  0.95241077  0.78118335  0.80618501    -0.07290
Co3012     Co  0.54450955  0.77283144  0.70778470     0.74180
N3013       N  0.52128908  0.82565849  0.73761304    -0.26460
Co3014     Co  0.97489100  0.80926715  0.72187371     0.74070
C3015       C  0.97137901  0.80614160  0.81475568     0.42150
N3016       N  0.96703935  0.71991223  0.78616899     0.00560
N3017       N  0.96204905  0.80501316  0.76589195     0.00660
N3018       N  0.52857741  0.80620003  0.64620629    -0.47310
H3019       H  0.60750168  0.77840299  0.76401999     0.06420
N3020       N  0.54898403  0.81198340  0.73158736     0.00950
N3021       N  0.92998050  0.79375408  0.70312530     0.00690
C3022       C  0.89374332  0.78420210  0.66519391     0.42290
N3023       N  0.99662718  0.70861659  0.78233194    -0.25920
C3024       C  0.52883584  0.73219013  0.65295448    -0.06840
N3025       N  0.57314346  0.71891310  0.78369836    -0.47030
N3026       N  0.91639874  0.80292685  0.67597549    -0.47250
C3027       C  0.51237807  0.70476861  0.64850784     0.42070
N3028       N  0.51793020  0.79705051  0.67213858     0.00940
N3029       N  0.96737624  0.69270622  0.72300299    -0.25940
N3030       N  0.56946089  0.75009982  0.74551990    -0.26430
N3031       N  0.93931901  0.70758257  0.72467242     0.00580
H3032       H  0.97835759  0.64751482  0.71711379     0.06470
H3033       H  0.88299985  0.74110367  0.68749073     0.06500
N3034       N  0.99049943  0.81098260  0.67830943    -0.26480
N3035       N  0.94879310  0.78157217  0.77557150    -0.26100
N3036       N  0.52525481  0.71146125  0.69620177     0.00940
C3037       C  0.56358234  0.85585253  0.74111657     0.42340
C3038       C  0.50673813  0.69064638  0.80551343    -0.07350
N3039       N  0.91819399  0.76918288  0.71146294    -0.26090
H3040       H  0.94685943  0.76354717  0.82057518     0.06490
N3041       N  0.57453889  0.82926932  0.73291368    -0.47320
H3042       H  0.52779076  0.67556587  0.80596198     0.06470
C3043       C  0.92409699  0.66447102  0.71491144     0.42170
C3044       C  0.59473778  0.75855096  0.76542858    -0.06840
Co3045     Co  0.51303052  0.70970682  0.73958508     0.73820
N3046       N  0.95520470  0.70893555  0.81081699    -0.47030
C3047       C  0.50563347  0.82608183  0.63383326     0.42440
N3048       N  0.51190671  0.69315842  0.67622940    -0.47020
Co3049     Co  0.94168483  0.74515278  0.74944381     0.73890
C3050       C  0.89494336  0.76148625  0.68885278    -0.07350
C3051       C  0.52807979  0.85305733  0.74468946    -0.06910
N3052       N  0.53533977  0.73484817  0.68340189    -0.26440
N3053       N  0.97548330  0.82037856  0.78876260    -0.47200
H3054       H  0.96086877  0.84558529  0.65578718     0.06450
C3055       C  0.96031003  0.66531362  0.71638620    -0.07330
Cl3056     Cl  0.99365395  0.75937349  0.72985386    -0.50330
C3057       C  0.97953829  0.69098538  0.82482278     0.42200
H3058       H  0.53155443  0.74874083  0.63618344     0.06410
N3059       N  0.91305415  0.69148529  0.72057290    -0.47040
C3060       C  0.69933449  0.99572557  0.83512357     0.42050
N3061       N  0.73362505  0.00533607  0.80178644     0.00940
C3062       C  0.69336600  0.56343733  0.65912429    -0.06930
H3063       H  0.66407187  0.94556541  0.67578580     0.06430
C3064       C  0.78172646  0.92931873  0.68070158    -0.07290
Co3065     Co  0.69475402  0.53053222  0.74648590     0.74180
N3066       N  0.67835915  0.98412437  0.70035447    -0.26460
Co3067     Co  0.71698948  0.00039373  0.67704752     0.74070
C3068       C  0.75387803  0.91752543  0.66081708     0.42150
N3069       N  0.80589596  0.96921939  0.75095195     0.00560
N3070       N  0.73985175  0.95970926  0.67675520     0.00660
N3071       N  0.67868363  0.58007050  0.70448417    -0.47310
H3072       H  0.65432515  0.00645310  0.80079673     0.06420
N3073       N  0.66986577  0.99523874  0.72630743     0.00950
N3074       N  0.75739850  0.51448794  0.65378464     0.00690
C3075       C  0.79138614  0.51882718  0.61867647     0.42290
N3076       N  0.79721051  0.98020525  0.77690387    -0.25920
C3077       C  0.71258614  0.59274741  0.77505299    -0.06840
N3078       N  0.73212416  0.99884038  0.83134929    -0.47030
N3079       N  0.75868747  0.51775645  0.62363179    -0.47250
C3080       C  0.74290898  0.60472153  0.79121758     0.42070
N3081       N  0.68791026  0.55264432  0.70604648     0.00940
N3082       N  0.81270394  0.53619883  0.75592286    -0.25940
N3083       N  0.70359480  0.00863209  0.78723304    -0.26430
N3084       N  0.82074052  0.52571028  0.72959796     0.00580
H3085       H  0.82932719  0.57223193  0.78299614     0.06470
H3086       H  0.83631460  0.50916060  0.65341336     0.06500
N3087       N  0.69669350  0.54217792  0.67992659    -0.26480
N3088       N  0.77078566  0.95558657  0.68903493    -0.26100
N3089       N  0.75230570  0.56063019  0.77878552     0.00940
C3090       C  0.64088589  0.95719595  0.72009612     0.42340
C3091       C  0.81325436  0.96557218  0.80028736    -0.07350
N3092       N  0.78747001  0.51142401  0.66825023    -0.26090
H3093       H  0.80675893  0.92072995  0.68619990     0.06490
N3094       N  0.64789306  0.97962610  0.73895059    -0.47320
H3095       H  0.81336068  0.97133315  0.82415949     0.06470
C3096       C  0.85132381  0.56238088  0.73747953     0.42170
C3097       C  0.68081009  0.00248336  0.80588156    -0.06840
Co3098     Co  0.77430589  0.52018697  0.77887512     0.73820
N3099       N  0.82828305  0.94794137  0.75527299    -0.47030
C3100       C  0.68216775  0.58856429  0.67590630     0.42440
N3101       N  0.76575629  0.58293356  0.79304248    -0.47020
Co3102     Co  0.79653550  0.99040984  0.70979850     0.73890
C3103       C  0.81009630  0.51460801  0.64849310    -0.07350
C3104       C  0.66125980  0.96011945  0.69460194    -0.06910
N3105       N  0.72115899  0.56540422  0.76766260    -0.26440
N3106       N  0.72909684  0.93789430  0.65978571    -0.47200
H3107       H  0.69919025  0.56164702  0.63566558     0.06450
C3108       C  0.83103713  0.55901330  0.76296715    -0.07330
Cl3109     Cl  0.74564655  0.01019624  0.72807012    -0.50330
C3110       C  0.83441130  0.94503650  0.78569276     0.42200
H3111       H  0.68802607  0.60279116  0.77069117     0.06410
N3112       N  0.84339992  0.54090990  0.71764789    -0.47040
C3113       C  0.91042877  0.61346967  0.70349841    -0.09560
C3114       C  0.90525775  0.63852870  0.72043797     0.06630
C3115       C  0.88325828  0.63784217  0.74344851    -0.03330
C3116       C  0.86643652  0.61291135  0.74838953    -0.07780
C3117       C  0.87089269  0.58789475  0.73114665     0.05750
C3118       C  0.89346294  0.58834892  0.70849307    -0.02800
Br3119     Br  0.90330858  0.55540996  0.68426341    -0.02500
H3120       H  0.92772200  0.61345260  0.68618720     0.09660
H3121       H  0.84960007  0.61341724  0.76601673     0.07680
Br3122     Br  0.87637714  0.66927419  0.77076612    -0.02930
C3123       C  0.58675914  0.93245567  0.71838225    -0.09560
C3124       C  0.62100002  0.93199245  0.72732068     0.06630
C3125       C  0.63584478  0.90689154  0.74170685    -0.03330
C3126       C  0.61673765  0.88276659  0.74623086    -0.07780
C3127       C  0.58230966  0.88293861  0.73711533     0.05750
C3128       C  0.56745021  0.90855415  0.72307343    -0.02800
Br3129     Br  0.52162697  0.91241324  0.70718381    -0.02500
H3130       H  0.57497575  0.95143523  0.70700974     0.09660
H3131       H  0.62894824  0.86368831  0.75699897     0.07680
Br3132     Br  0.68230592  0.90474720  0.75560800    -0.02930
C3133       C  0.72128818  0.88324293  0.62788670    -0.09560
C3134       C  0.75279024  0.89325304  0.63834325     0.06630
C3135       C  0.78045654  0.88260019  0.62380339    -0.03330
C3136       C  0.77574604  0.86393349  0.59871769    -0.07780
C3137       C  0.74400266  0.85527116  0.58732178     0.05750
C3138       C  0.71660767  0.86469470  0.60277013    -0.02800
Br3139     Br  0.67156421  0.85616997  0.58905896    -0.02500
H3140       H  0.69963683  0.89103422  0.63849472     0.09660
H3141       H  0.79715225  0.85674525  0.58739652     0.07680
Br3142     Br  0.82507938  0.89402254  0.63440621    -0.02930
C3143       C  0.73477122  0.62267874  0.84286042    -0.09560
C3144       C  0.74582239  0.62803426  0.81433660     0.06630
C3145       C  0.76621302  0.65163255  0.81141918    -0.03330
C3146       C  0.77466032  0.66962274  0.83671830    -0.07780
C3147       C  0.76385218  0.66401562  0.86560005     0.05750
C3148       C  0.74387438  0.63977809  0.86831384    -0.02800
Br3149     Br  0.73029210  0.62614064  0.90641755    -0.02500
H3150       H  0.72059886  0.60378504  0.84588051     0.09660
H3151       H  0.78982134  0.68788489  0.83379659     0.07680
Br3152     Br  0.78337417  0.65964265  0.77328652    -0.02930
C3153       C  0.64742119  0.73594487  0.82779856    -0.09560
C3154       C  0.61309839  0.74082340  0.82209578     0.06630
C3155       C  0.59414495  0.74589256  0.84698419    -0.03330
C3156       C  0.60936966  0.74393497  0.87712831    -0.07780
C3157       C  0.64346760  0.73713732  0.88298854     0.05750
C3158       C  0.66276926  0.73447431  0.85787162    -0.02800
Br3159     Br  0.71028384  0.73116671  0.86264226    -0.02500
H3160       H  0.66229895  0.73280466  0.80878641     0.09660
H3161       H  0.59443157  0.74732164  0.89605454     0.07680
Br3162     Br  0.54762922  0.75645112  0.84086478    -0.02930
C3163       C  0.84043384  0.78500416  0.58804585    -0.09560
C3164       C  0.86462301  0.78783811  0.56735829     0.06630
C3165       C  0.89824993  0.78713124  0.57904731    -0.03330
C3166       C  0.90722871  0.78481265  0.61080151    -0.07780
C3167       C  0.88310523  0.78245827  0.63163829     0.05750
C3168       C  0.84945341  0.78203825  0.61984780    -0.02800
Br3169     Br  0.81498617  0.77935613  0.64650024    -0.02500
H3170       H  0.81437719  0.78542343  0.57946369     0.09660
H3171       H  0.93325678  0.78537813  0.61931878     0.07680
Br3172     Br  0.93247846  0.79102304  0.55239313    -0.02930
C3173       C  0.89082438  0.66125534  0.54383833    -0.09560
C3174       C  0.85831117  0.65554032  0.53146580     0.06630
C3175       C  0.85076642  0.62694076  0.52364811    -0.03330
C3176       C  0.87625671  0.60562353  0.52552152    -0.07780
C3177       C  0.90945300  0.61235889  0.53399546     0.05750
C3178       C  0.91635634  0.63998108  0.54483407    -0.02800
Br3179     Br  0.96095991  0.65050867  0.55681892    -0.02500
H3180       H  0.89703899  0.68299644  0.55023140     0.09660
H3181       H  0.87071366  0.58436364  0.51690195     0.07680
Br3182     Br  0.80813166  0.61623342  0.00486036    -0.02930
C3183       C  0.62200133  0.91590114  0.92382525    -0.09560
C3184       C  0.59073043  0.90438417  0.91516690     0.06630
C3185       C  0.58983186  0.87590406  0.90491386    -0.03330
C3186       C  0.61929538  0.85918637  0.90463734    -0.07780
C3187       C  0.65014632  0.86949461  0.91669125     0.05750
C3188       C  0.65155524  0.89874580  0.92489756    -0.02800
Br3189     Br  0.69181671  0.91530254  0.94215240    -0.02500
H3190       H  0.62313877  0.93751817  0.93284447     0.09660
H3191       H  0.61750077  0.83676906  0.89833316     0.07680
Br3192     Br  0.54882677  0.85691075  0.89756916    -0.02930
C3193       C  0.68592511  0.51963082  0.88422190    -0.09560
C3194       C  0.68263279  0.99618210  0.86402400     0.06630
C3195       C  0.65627718  0.97766048  0.86679088    -0.03330
C3196       C  0.63281992  0.48364741  0.88761282    -0.07780
C3197       C  0.63498284  0.50781292  0.90666546     0.05750
C3198       C  0.66244409  0.52542837  0.90547224    -0.02800
Br3199     Br  0.66689135  0.55913795  0.93028285    -0.02500
H3200       H  0.70528194  0.53466912  0.88195611     0.09660
H3201       H  0.61187118  0.96993479  0.88798313     0.07680
Br3202     Br  0.64993048  0.94470629  0.84092487    -0.02930
C3203       C  0.82420954  0.98412535  0.58919502    -0.09560
C3204       C  0.80611952  0.51053132  0.58977299     0.06630
C3205       C  0.80831140  0.53022229  0.56565690    -0.03330
C3206       C  0.82983889  0.02416983  0.54278317    -0.07780
C3207       C  0.84983614  0.99860321  0.54367810     0.05750
C3208       C  0.84578565  0.97812528  0.56665843    -0.02800
Br3209     Br  0.87015355  0.94182222  0.56893044    -0.02500
H3210       H  0.82288091  0.96856520  0.60740411     0.09660
H3211       H  0.83256036  0.04034068  0.52552591     0.07680
Br3212     Br  0.78480851  0.56673608  0.56506402    -0.02930
C3213       C  0.51659796  0.86930400  0.56183889    -0.09560
C3214       C  0.51354197  0.89749710  0.57308759     0.06630
C3215       C  0.51330490  0.90145490  0.60491890    -0.03330
C3216       C  0.51233415  0.87773434  0.62426070    -0.07780
C3217       C  0.51270338  0.84962552  0.61289022     0.05750
C3218       C  0.51654381  0.84537964  0.58163039    -0.02800
Br3219     Br  0.52034785  0.80748398  0.56507052    -0.02500
H3220       H  0.51783548  0.86587225  0.53755221     0.09660
H3221       H  0.51076618  0.88129069  0.64844065     0.07680
Br3222     Br  0.51593452  0.93863782  0.62369190    -0.02930
C3223       C  0.00001823  0.63288068  0.88562481    -0.09560
C3224       C  0.97381170  0.61427143  0.87926648     0.06630
C3225       C  0.94735807  0.62289619  0.85728672    -0.03330
C3226       C  0.94815481  0.64907236  0.84122908    -0.07780
C3227       C  0.97506952  0.66716949  0.84670560     0.05750
C3228       C  0.00066528  0.65913176  0.86981425    -0.02800
Br3229     Br  0.53700969  0.68355880  0.88079656    -0.02500
H3230       H  0.02019047  0.62691042  0.90287428     0.09660
H3231       H  0.92859380  0.65448519  0.82325991     0.07680
Br3232     Br  0.91107223  0.59840694  0.84651217    -0.02930
C3233       C  0.66018490  0.64616883  0.61915527    -0.09560
C3234       C  0.62636552  0.65233860  0.62472402     0.06630
C3235       C  0.61845632  0.64645164  0.65489137    -0.03330
C3236       C  0.63928093  0.62754359  0.67349496    -0.07780
C3237       C  0.66859338  0.61591513  0.66328422     0.05750
C3238       C  0.68107366  0.62818107  0.63810460    -0.02800
Br3239     Br  0.72457509  0.61853993  0.62629546    -0.02500
H3240       H  0.66936676  0.65138093  0.59767842     0.09660
H3241       H  0.63137426  0.62045871  0.69506496     0.07680
Br3242     Br  0.58410720  0.66510793  0.67498290    -0.02930
C3243       C  0.54555690  0.64839530  0.61386065    -0.09560
C3244       C  0.56515970  0.66721137  0.59876199     0.06630
C3245       C  0.54806922  0.69288732  0.58528244    -0.03330
C3246       C  0.51784234  0.70169019  0.59527168    -0.07780
C3247       C  0.50767341  0.68794652  0.62044063     0.05750
C3248       C  0.51560498  0.65846238  0.62360479    -0.02800
Br3249     Br  0.49167116  0.63385814  0.64785510    -0.02500
H3250       H  0.55480277  0.62692546  0.62055409     0.09660
H3251       H  0.50710929  0.72278275  0.58873026     0.07680
Br3252     Br  0.56104658  0.71895982  0.55445883    -0.02930
C3253       C  0.65795161  0.71696354  0.58851752    -0.09560
C3254       C  0.67474006  0.70629603  0.56465686     0.06630
C3255       C  0.65921782  0.68674227  0.54354367    -0.03330
C3256       C  0.63150744  0.67338155  0.55107129    -0.07780
C3257       C  0.61798420  0.68003700  0.57844375     0.05750
C3258       C  0.62880311  0.70503891  0.59485648    -0.02800
Br3259     Br  0.60938372  0.72086124  0.62971141    -0.02500
H3260       H  0.66792069  0.73433000  0.60260938     0.09660
H3261       H  0.62327714  0.65590843  0.53667234     0.07680
Br3262     Br  0.67260937  0.67636587  0.00390751    -0.02930
C3263       C  0.61278682  0.60176449  0.59378857    -0.09560
C3264       C  0.59874443  0.62719976  0.57845985     0.06630
C3265       C  0.57896972  0.62302138  0.55002970    -0.03330
C3266       C  0.57415322  0.59540513  0.53893069    -0.07780
C3267       C  0.58728430  0.57149389  0.55576150     0.05750
C3268       C  0.60771412  0.57458709  0.58252403    -0.02800
Br3269     Br  0.62469800  0.54195669  0.60710944    -0.02500
H3270       H  0.62556641  0.60149633  0.61629017     0.09660
H3271       H  0.55733786  0.59237729  0.51842968     0.07680
Br3272     Br  0.55448293  0.65226820  0.52539528    -0.02930
C3273       C  0.91750681  0.87526317  0.91965389    -0.09560
C3274       C  0.88783129  0.87373774  0.89970903     0.06630
C3275       C  0.86216139  0.89312535  0.90708219    -0.03330
C3276       C  0.87091360  0.92049641  0.91739075    -0.07780
C3277       C  0.90456098  0.92550055  0.92520260     0.05750
C3278       C  0.92645652  0.90167717  0.93178709    -0.02800
Br3279     Br  0.96951093  0.90466293  0.95397012    -0.02500
H3280       H  0.93640289  0.85818785  0.92158250     0.09660
H3281       H  0.85211587  0.93761765  0.91803440     0.07680
Br3282     Br  0.82273264  0.87877945  0.92132856    -0.02930
C3283       C  0.79849556  0.83871593  0.84623549    -0.09560
C3284       C  0.80390032  0.80945415  0.85153157     0.06630
C3285       C  0.83439721  0.79743992  0.84471243    -0.03330
C3286       C  0.86194799  0.81449814  0.84826019    -0.07780
C3287       C  0.85859620  0.84385478  0.85642305     0.05750
C3288       C  0.82540896  0.85648035  0.85048106    -0.02800
Br3289     Br  0.81218502  0.89669890  0.84657369    -0.02500
H3290       H  0.77353033  0.84811754  0.84575557     0.09660
H3291       H  0.88542522  0.80430898  0.84439530     0.07680
Br3292     Br  0.84025093  0.75716475  0.83687877    -0.02930
C3293       C  0.89190206  0.91432269  0.84827777    -0.09560
C3294       C  0.88773151  0.88534316  0.84104890     0.06630
C3295       C  0.88167842  0.87877792  0.80922900    -0.03330
C3296       C  0.86700186  0.89991070  0.78937759    -0.07780
C3297       C  0.86158804  0.92749982  0.80046653     0.05750
C3298       C  0.87852886  0.93571222  0.82828109    -0.02800
Br3299     Br  0.88364320  0.97511615  0.83999649    -0.02500
H3300       H  0.90536429  0.92023939  0.86926785     0.09660
H3301       H  0.85718291  0.89415926  0.76638981     0.07680
Br3302     Br  0.89040472  0.84211643  0.79120961    -0.02930
C3303       C  0.95058188  0.86239712  0.85590323    -0.09560
C3304       C  0.92399648  0.84667454  0.86557231     0.06630
C3305       C  0.93336760  0.81917024  0.87845718    -0.03330
C3306       C  0.96096823  0.80469914  0.86810735    -0.07780
C3307       C  0.97731338  0.81808024  0.84550175     0.05750
C3308       C  0.97808569  0.84798785  0.84631367    -0.02800
Br3309     Br  0.00794933  0.86946092  0.82449289    -0.02500
H3310       H  0.94911820  0.88545769  0.85310508     0.09660
H3311       H  0.96498600  0.78190523  0.87272042     0.07680
Br3312     Br  0.90970998  0.80029816  0.90825744    -0.02930
loop_ 
_geom_bond_atom_site_label_1 
_geom_bond_atom_site_label_2 
_geom_bond_distance 
_geom_bond_site_symmetry_2 
_ccdc_geom_bond_type 
C1          C376   1.572       .  S
C1          C389   1.561       .  S
C1          C396   1.546       .  S
C1          C406   1.547       .  S
C2          C336   1.578       .  S
C2          C346   1.541       .  S
C2          C359   1.514       .  S
C2          C366   1.573       .  S
C3           N21   1.362       .  A
C3           C40   1.447       .  S
C3          C286   1.487       .  S
N4           N21   1.334       .  A
N4           N26   1.318       .  A
N4         Co869   2.134       .  S
C5           N30   1.324       .  A
C5           C43   1.445       .  S
C5         H1706   1.082       .  S
H6           C47   1.082       .  S
C7           N31   1.353       .  A
C7           C11   1.474       .  S
C7           H36   1.081       .  S
Co8          N26   2.039       .  S
Co8         N430   2.102       .  S
Co8         N876   2.134       .  S
Co8        N1266   2.042       .  S
Co8       Cl2536   2.440   1_455  S
N9           C47   1.339       .  A
N9         N1672   1.322       .  A
N9          Co10   2.090       .  S
Co10         N13   2.070       .  S
Co10       N2514   2.048       .  S
Co10        N845   2.124       .  S
Co10      Cl1294   2.458   1_554  S
C11         N463   1.351       .  A
C11         C723   1.500       .  S
N12          N19   1.327       .  A
N12          N42   1.320       .  A
N12        Co873   2.043       .  S
N13          N49   1.325       .  A
N13         N445   1.318   1_554  A
N14          C43   1.340       .  A
N14          N24   1.318       .  A
H15          C40   1.082       .  S
N16          N37   1.329       .  A
N16        N1665   1.322   1_455  A
N16        Co422   2.102   1_554  S
N17          N22   1.330       .  A
N17         N449   1.320   1_554  A
N17        Co838   2.124       .  S
C18          N22   1.358       .  A
C18         C279   1.476       .  S
C18         C460   1.452   1_554  S
N19          C34   1.334       .  A
N19       Co2525   2.100       .  S
C20          N48   1.351       .  A
C20          C23   1.473       .  S
C20          H54   1.081   1_545  S
C23          N44   1.353       .  A
C23         C299   1.497       .  S
N24          N30   1.319       .  A
N24       Co1250   2.042   1_544  S
N25          C51   1.349       .  A
N25          N27   1.321       .  A
N25       Co1697   2.111   1_545  S
N26          C40   1.332       .  A
N27          N55   1.329       .  A
N27         Co45   2.091       .  S
H28          C51   1.081       .  S
H29          C46   1.082       .  S
N30       Co2494   2.048   1_455  S
N31         N427   1.318       .  A
N31        Co873   2.126       .  S
N32          N44   1.326       .  A
N32          N48   1.323       .  A
N32         Co41   2.086   1_545  S
C33          N37   1.352       .  A
C33         C316   1.485       .  S
C33        C1703   1.462   1_455  S
C34          C53   1.460       .  S
C34          H38   1.081       .  S
N35          C46   1.329       .  A
N35         N431   1.320       .  A
N35         Co45   2.048       .  S
C39          N55   1.350       .  A
C39          C51   1.466       .  S
C39         C326   1.491       .  S
Co41        N832   2.134       .  S
Co41       N2503   2.100   1_455  S
Co41       N1681   2.111   1_465  S
Co41      Cl1708   2.462   1_465  S
N42          C53   1.334       .  A
C43         C369   1.429       .  S
Co45        N840   2.043   1_545  S
Co45        N859   2.126       .  S
Co45        Cl52   2.453       .  S
C46         C432   1.452       .  S
C47        C1689   1.462       .  S
N48        Co836   2.134   1_545  S
N49         C425   1.351       .  A
H50        C1661   1.082       .  S
Cl52      Co2492   2.440   1_545  S
Cl52      Co1252   2.458       .  S
Cl52      Co1697   2.462   1_545  S
C53         C379   1.461       .  S
C56          N74   1.352       .  A
C56          C93   1.456       .  S
C56         C266   1.493       .  S
N57          N79   1.323       .  A
N57         N488   1.331       .  A
N57         Co94   2.107       .  S
C58          N83   1.329       .  A
C58          C96   1.449       .  S
C58         H103   1.082       .  S
H59         C100   1.080       .  S
C60         N498   1.327       .  A
C60          C64   1.451       .  S
C60          H89   1.082       .  S
Co61         N79   2.105       .  S
Co61        N101   2.077       .  S
Co61         N77   2.125       .  S
Co61        N483   2.097       .  S
Co61       Cl105   2.462       .  S
N62         C100   1.345       .  A
N62          N69   1.316       .  A
N62        Co477   2.094   1_554  S
Co63         N83   2.051       .  S
Co63         N70   2.082       .  S
Co63        N476   2.094       .  S
Co63        N480   2.024       .  S
Co63       Cl105   2.424       .  S
C64         N102   1.339       .  A
C64         C356   1.435       .  S
N65          N72   1.315       .  A
N65          N95   1.328       .  A
N65         Co98   2.091       .  S
N66         N102   1.308       .  A
N66         N498   1.312       .  A
N66        Co477   2.024   1_554  S
N67          C96   1.365       .  A
N67          N77   1.336       .  A
H68          C93   1.078       .  S
N69          N90   1.326       .  A
N69        Co475   2.097   1_554  S
N70          N88   1.320       .  A
N70          N75   1.327       .  A
C71          N75   1.348       .  A
C71          C99   1.459       .  S
C71         C259   1.484       .  S
N72          C87   1.336       .  A
N72         Co94   2.071       .  S
C73         N101   1.335       .  A
C73          C76   1.466       .  S
C73         H107   1.081       .  S
N74         N471   1.331   1_554  A
C76          N97   1.345       .  A
C76         C386   1.465       .  S
N77          N83   1.315       .  A
N78         C104   1.362       .  A
N78          N80   1.315       .  A
N78         Co94   2.144       .  S
N79         C507   1.346       .  A
N80         N108   1.316       .  A
N80         Co98   2.049       .  S
H81         C104   1.081       .  S
H82          C99   1.079       .  S
N84         C474   1.327       .  A
N84         N480   1.312       .  A
N84         Co98   2.030       .  S
N85          N97   1.318       .  A
N85         N101   1.320       .  A
N85         Co94   2.051       .  S
C86          N90   1.353       .  A
C86         C100   1.468       .  S
C86         C239   1.495       .  S
C87         C520   1.458       .  S
C87          H91   1.082       .  S
N88          C99   1.344       .  A
N88         Co98   2.103       .  S
C92         N108   1.338       .  A
C92         C104   1.489       .  S
C92         C249   1.504       .  S
C93         N493   1.346   1_554  A
Co94       Cl105   2.441       .  S
N95         C520   1.355       .  A
C96         C289   1.493       .  S
Co98       Cl105   2.441       .  S
C106        N509   1.355       .  A
C106        C276   1.483       .  S
C106        C501   1.458       .  S
C109        N127   1.343       .  A
C109        C146   1.464       .  S
C109        C256   1.475       .  S
N110        N127   1.322       .  A
N110        N132   1.324       .  A
N110       Co147   2.073       .  S
C111        N136   1.335       .  A
C111       C1805   1.459       .  S
C111        H156   1.082       .  S
H112        C153   1.080       .  S
C113        N137   1.336       .  A
C113        C117   1.448       .  S
C113        H142   1.079       .  S
Co114       N132   2.110       .  S
Co114       N122   2.108       .  S
Co114       N154   2.095       .  S
Co114       N130   2.105       .  S
Co114     Cl1814   2.464   1_455  S
N115        C153   1.346       .  A
N115        N122   1.318       .  A
N115      Co1772   2.108   1_455  S
Co116       N119   2.060       .  S
Co116       N136   2.074       .  S
Co116       N123   2.076       .  S
Co116      N1771   2.108       .  S
Co116      Cl158   2.429       .  S
C117        N155   1.345       .  A
C117        C409   1.461       .  S
N118        N125   1.316       .  A
N118        N148   1.334       .  A
N118       Co151   2.143       .  S
N119        N137   1.323       .  A
N119        N155   1.318       .  A
N120        C149   1.358       .  A
N120        N130   1.331       .  A
H121        C146   1.081       .  S
N122        N143   1.333       .  A
N123        N141   1.322       .  A
N123        N128   1.323       .  A
C124        N128   1.343       .  A
C124        C152   1.476       .  S
C124        C269   1.494       .  S
N125       C1796   1.337       .  A
N125      Co1803   2.052       .  S
C126        N154   1.342       .  A
C126        C129   1.468       .  S
C126        H160   1.080       .  S
C129        N150   1.332       .  A
C129        C349   1.461       .  S
N130       N1792   1.316   1_455  A
N131        C157   1.344       .  A
N131        N133   1.316       .  A
N131      Co1803   2.103       .  S
N132        C146   1.348       .  A
N133        N161   1.323       .  A
N133       Co151   2.062       .  S
H134        C157   1.081       .  S
H135        C152   1.081       .  S
N136       N1786   1.316       .  A
N137       Co151   2.062       .  S
N138        N150   1.315       .  A
N138        N154   1.321       .  A
N138       Co147   2.016       .  S
C139        N143   1.360       .  A
C139        C153   1.473       .  S
C139        C229   1.516       .  S
C140       N1781   1.337   1_455  A
C140       C1815   1.455   1_455  S
C140        H144   1.082       .  S
N141        C152   1.356       .  A
N141       Co151   2.126       .  S
C145        N161   1.350       .  A
C145        C157   1.463       .  S
C145        C216   1.486       .  S
Co147      N1781   2.052   1_455  S
Co147      N1787   2.103   1_455  S
Co147     Cl1814   2.436   1_455  S
N148        C159   1.363       .  A
C149        C319   1.483       .  S
C149       C1767   1.459   1_455  S
Co151      Cl158   2.465       .  S
Cl158     Co1770   2.464       .  S
Cl158     Co1803   2.436       .  S
C159        C329   1.493       .  S
C159       C1796   1.455       .  S
C162        N180   1.368       .  A
C162        C199   1.446       .  S
C162        C296   1.495       .  S
N163        N180   1.338       .  A
N163        N185   1.318       .  A
N163      Co1028   2.150       .  S
C164        N189   1.338       .  A
C164        C202   1.465       .  S
C164        H209   1.081       .  S
H165        C206   1.081       .  S
C166        N190   1.348       .  A
C166        C170   1.479       .  S
C166        H195   1.079       .  S
Co167       N207   2.142       .  S
Co167       N183   2.038       .  S
Co167      N1013   2.048       .  S
Co167      N1003   2.111   1_545  S
Co167     Cl1039   2.446       .  S
N168        C206   1.349       .  A
N168        N175   1.323       .  A
N168       Co169   2.116       .  S
Co169       N172   2.076       .  S
Co169      N1017   2.091       .  S
Co169      N1004   2.137       .  S
Co169      Cl211   2.467       .  S
C170        N208   1.351       .  A
C170        C236   1.501       .  S
N171        N178   1.323       .  A
N171        N201   1.317       .  A
N171       Co204   2.049       .  S
N172        N190   1.319       .  A
N172        N208   1.322       .  A
N173        C202   1.336       .  A
N173        N183   1.316       .  A
H174        C199   1.082       .  S
N175        N196   1.333       .  A
N175       Co995   2.111       .  S
N176        N194   1.318       .  A
N176        N181   1.337       .  A
N176       Co997   2.137       .  S
C177        N181   1.366       .  A
C177        C205   1.453       .  S
C177        C306   1.499       .  S
N178        C193   1.329       .  A
N178      Co1028   2.053       .  S
C179        N207   1.355       .  A
C179        C182   1.484       .  S
C179        H213   1.081       .  S
C182        N203   1.343       .  A
C182        C246   1.487       .  S
N183        N189   1.322       .  A
N184        C210   1.339       .  A
N184        N186   1.320       .  A
N184       Co200   2.095       .  S
N185        C199   1.332       .  A
N185       Co995   2.048       .  S
N186        N214   1.328       .  A
N186      Co1032   2.093   1_545  S
H187        C210   1.080       .  S
H188        C205   1.082       .  S
N189       Co997   2.091       .  S
N190       Co204   2.120       .  S
N191        N203   1.321       .  A
N191        N207   1.316       .  A
N191       Co200   2.051       .  S
C192        N196   1.355       .  A
C192        C206   1.464       .  S
C192        C226   1.500       .  S
C193        C212   1.452       .  S
C193        H197   1.081       .  S
N194        C205   1.335       .  A
N194      Co1032   2.059   1_545  S
C198        N214   1.354       .  A
C198        C210   1.464       .  S
C198        C219   1.495       .  S
Co200       N991   2.150       .  S
Co200      N1006   2.053   1_545  S
Co200     Cl1039   2.460       .  S
N201        C212   1.338       .  A
C202        C339   1.453       .  S
Co204      N1014   2.093       .  S
Co204      N1022   2.059       .  S
Co204      Cl211   2.434       .  S
Cl211      Co995   2.446       .  S
Cl211     Co1028   2.460       .  S
C212        C399   1.442       .  S
C215        H222   1.083       .  S
C215        C216   1.405       .  A
C215        C220   1.407       .  A
C216        C217   1.413       .  A
C217        C218   1.396       .  A
C217       Br224   1.923       .  S
C218        H223   1.081       .  S
C218        C219   1.406       .  A
C219        C220   1.417       .  A
C220       Br221   1.920       .  S
C225        H232   1.084       .  S
C225        C226   1.402       .  A
C225        C230   1.412       .  A
C226        C227   1.411       .  A
C227        C228   1.414       .  A
C227       Br234   1.917       .  S
C228        H233   1.083       .  S
C228        C229   1.411       .  A
C229        C230   1.425       .  A
C230       Br231   1.917       .  S
C235        H242   1.084       .  S
C235        C236   1.409       .  A
C235        C240   1.404       .  A
C236        C237   1.418       .  A
C237        C238   1.406       .  A
C237       Br244   1.916       .  S
C238        H243   1.084       .  S
C238        C239   1.406       .  A
C239        C240   1.413       .  A
C240       Br241   1.919       .  S
C245        H252   1.084       .  S
C245        C246   1.395       .  A
C245        C250   1.400       .  A
C246        C247   1.413       .  A
C247        C248   1.414       .  A
C247       Br254   1.916       .  S
C248        H253   1.083       .  S
C248        C249   1.408       .  A
C249        C250   1.426       .  A
C250       Br251   1.925       .  S
C255        H262   1.084       .  S
C255        C256   1.397       .  A
C255        C260   1.400       .  A
C256        C257   1.411       .  A
C257        C258   1.402       .  A
C257       Br264   1.920       .  S
C258        H263   1.084       .  S
C258        C259   1.402       .  A
C259        C260   1.416       .  A
C260       Br261   1.914       .  S
C265        H272   1.083       .  S
C265        C266   1.410       .  A
C265        C270   1.411       .  A
C266        C267   1.405       .  A
C267        C268   1.406       .  A
C267       Br274   1.915       .  S
C268        H273   1.084       .  S
C268        C269   1.410       .  A
C269        C270   1.409       .  A
C270       Br271   1.916       .  S
C275        H282   1.084       .  S
C275        C276   1.408       .  A
C275        C280   1.401       .  A
C276        C277   1.413       .  A
C277        C278   1.400       .  A
C277       Br698   1.921       .  S
C278        H283   1.084       .  S
C278        C279   1.406       .  A
C279        C280   1.401       .  A
C280       Br281   1.913       .  S
Br284       C691   1.921       .  S
C285        H292   1.083       .  S
C285        C286   1.412       .  A
C285        C290   1.409       .  A
C286        C287   1.402       .  A
C287        C288   1.400       .  A
C287       Br294   1.911       .  S
C288        H293   1.084       .  S
C288        C289   1.409       .  A
C289        C290   1.412       .  A
C290       Br291   1.918       .  S
C295        H302   1.083       .  S
C295        C300   1.416       .  A
C295       C1124   1.410   1_545  A
C296        C297   1.413       .  A
C296       C1123   1.410       .  A
C297       C1126   1.403       .  A
C297       Br304   1.921       .  S
C298       H1131   1.083       .  S
C298        C299   1.403   1_565  A
C298       C1125   1.403       .  A
C299        C300   1.413       .  A
C300       Br301   1.916       .  S
H303       C1126   1.083       .  S
C305        H312   1.084       .  S
C305        C310   1.405       .  A
C305       C1134   1.408       .  A
C306        C307   1.410       .  A
C306       C1133   1.408   1_545  A
C307       C1136   1.416       .  A
C307       Br314   1.914       .  S
C308        H313   1.083       .  S
C308        C309   1.411       .  A
C308       C1135   1.416       .  A
C309        C425   1.500       .  S
C309        C310   1.412       .  A
C310       Br311   1.921       .  S
C315        H322   1.083       .  S
C315        C316   1.409       .  A
C315        C320   1.411       .  A
C316        C317   1.409       .  A
C317        C318   1.395       .  A
C317       Br324   1.921       .  S
C318        H323   1.081       .  S
C318        C319   1.402       .  A
C319        C320   1.409       .  A
C320       Br321   1.916       .  S
C325        H332   1.083       .  S
C325        C326   1.403       .  A
C325        C330   1.406       .  A
C326        C327   1.412       .  A
C327        C328   1.409       .  A
C327       Br334   1.918       .  S
C328        H333   1.081       .  S
C328        C329   1.406       .  A
C329        C330   1.413       .  A
C330      Br1987   1.919       .  S
Br331      C1986   1.919       .  S
C335        H342   1.077       .  S
C335        C336   1.433       .  A
C335        C340   1.381       .  A
C336        C337   1.421       .  A
C337        C338   1.397       .  A
C337       Br344   1.903       .  S
C338        H343   1.084       .  S
C338        C339   1.400       .  A
C339        C340   1.390       .  A
C340       Br341   1.922       .  S
C345        H352   1.083       .  S
C345        C346   1.412       .  A
C345        C350   1.391       .  A
C346        C347   1.452       .  A
C347        C348   1.388       .  A
C347       Br354   1.940       .  S
C348        H353   1.084       .  S
C348        C349   1.381       .  A
C349        C350   1.401       .  A
C350       Br351   1.916   1_455  S
C355        H362   1.085       .  S
C355        C356   1.387       .  A
C355        C360   1.377       .  A
C356        C357   1.419       .  A
C357        C358   1.373       .  A
C357       Br778   1.929       .  S
C358        H363   1.074       .  S
C358        C359   1.399       .  A
C359        C360   1.430       .  A
C360       Br361   1.923       .  S
Br364       C771   1.929       .  S
C365        H372   1.067       .  S
C365        C366   1.430       .  A
C365        C370   1.375       .  A
C366        C367   1.430       .  A
C367        C368   1.390       .  A
C367       Br374   1.917       .  S
C368        H373   1.085       .  S
C368        C369   1.392       .  A
C369        C370   1.377       .  A
C370       Br371   1.925       .  S
C375        H382   1.079       .  S
C375        C376   1.418       .  A
C375        C380   1.388       .  A
C376        C377   1.413       .  A
C377        C378   1.400       .  A
C377       Br384   1.915       .  S
C378        H383   1.083       .  S
C378        C379   1.400       .  A
C379        C380   1.403       .  A
C380       Br381   1.919       .  S
C385        H392   1.084       .  S
C385        C386   1.387       .  A
C385        C390   1.392       .  A
C386        C387   1.396       .  A
C387        C388   1.391       .  A
C387       Br394   1.917       .  S
C388        H393   1.075       .  S
C388        C389   1.419       .  A
C389        C390   1.444       .  A
C390       Br391   1.930       .  S
C395        H402   1.064       .  S
C395        C396   1.400       .  A
C395        C400   1.383       .  A
C396        C397   1.428       .  A
C397        C398   1.388       .  A
C397       Br404   1.918       .  S
C398        H403   1.084       .  S
C398        C399   1.392       .  A
C399        C400   1.400       .  A
C400       Br401   1.920       .  S
C405        H412   1.079       .  S
C405        C406   1.424       .  A
C405        C410   1.380       .  A
C406        C407   1.421       .  A
C407        C408   1.398       .  A
C407       Br414   1.926       .  S
C408        H413   1.083       .  S
C408        C409   1.404       .  A
C409        C410   1.395       .  A
C410       Br411   1.924       .  S
C415        C790   1.572       .  S
C415        C803   1.561       .  S
C415        C810   1.546       .  S
C415        C820   1.547       .  S
C416        C750   1.578       .  S
C416        C760   1.541       .  S
C416        C773   1.514       .  S
C416        C780   1.573       .  S
C417        N435   1.362       .  A
C417        C454   1.447       .  S
C417        C700   1.487       .  S
N418        N435   1.334       .  A
N418        N440   1.318       .  A
N418      Co1283   2.134       .  S
C419        N444   1.324       .  A
C419        C457   1.445       .  S
C419       H2120   1.082       .  S
H420        C461   1.082       .  S
C421        N445   1.353       .  A
C421        C425   1.474   1_556  S
C421        H450   1.081       .  S
Co422       N440   2.039       .  S
Co422      N1290   2.134       .  S
Co422       N852   2.042   1_556  S
Co422     Cl2950   2.440   1_455  S
N423        C461   1.339       .  A
N423       N2086   1.322       .  A
N423       Co424   2.090       .  S
Co424       N427   2.070       .  S
Co424      N2928   2.048       .  S
Co424      N1259   2.124       .  S
Co424      Cl880   2.458       .  S
N426        N433   1.327       .  A
N426        N456   1.320       .  A
N426      Co1287   2.043       .  S
N427        N463   1.325       .  A
N428        C457   1.340       .  A
N428        N438   1.318       .  A
H429        C454   1.082       .  S
N430       N2079   1.322   1_455  A
N430        N451   1.329       .  A
N431        N436   1.330       .  A
N431      Co1252   2.124       .  S
C432        N436   1.358       .  A
C432        C693   1.476       .  S
N433        C448   1.334       .  A
N433      Co2939   2.100       .  S
C434        N462   1.351       .  A
C434        C437   1.473       .  S
C434        H468   1.081   1_545  S
C437        N458   1.353       .  A
C437        C713   1.497       .  S
N438        N444   1.319       .  A
N438       Co836   2.042   1_545  S
N439        C465   1.349       .  A
N439        N441   1.321       .  A
N439      Co2111   2.111   1_545  S
N440        C454   1.332       .  A
N441        N469   1.329       .  A
N441       Co459   2.091       .  S
H442        C465   1.081       .  S
H443        C460   1.082       .  S
N444      Co2908   2.048   1_455  S
N445      Co1287   2.126       .  S
N446        N458   1.326       .  A
N446        N462   1.323       .  A
N446       Co455   2.086   1_545  S
C447        N451   1.352       .  A
C447       C2117   1.462   1_455  S
C447        C730   1.485       .  S
C448        C467   1.460       .  S
C448        H452   1.081       .  S
N449        C460   1.329       .  A
N449       Co459   2.048       .  S
C453        N469   1.350       .  A
C453        C465   1.466       .  S
C453        C740   1.491       .  S
Co455      N1246   2.134       .  S
Co455      N2917   2.100   1_455  S
Co455      N2095   2.111   1_465  S
Co455     Cl2122   2.462   1_465  S
N456        C467   1.334       .  A
C457        C783   1.429       .  S
Co459      N1254   2.043   1_545  S
Co459      N1273   2.126       .  S
Co459      Cl466   2.453       .  S
C461       C2103   1.462       .  S
N462      Co1250   2.134   1_545  S
H464       C2075   1.082       .  S
Cl466     Co2906   2.440   1_545  S
Cl466      Co838   2.458   1_556  S
Cl466     Co2111   2.462   1_545  S
C467        C793   1.461       .  S
C470        N488   1.352       .  A
C470        C507   1.456       .  S
C470        C680   1.493       .  S
N471        N493   1.323       .  A
N471       Co508   2.107       .  S
C472        N497   1.329       .  A
C472        C510   1.449       .  S
C472        H517   1.082       .  S
H473        C514   1.080       .  S
C474        C478   1.451       .  S
C474        H503   1.082       .  S
Co475       N493   2.105       .  S
Co475       N515   2.077       .  S
Co475       N491   2.125       .  S
Co475      Cl519   2.462       .  S
N476        C514   1.345       .  A
N476        N483   1.316       .  A
Co477       N497   2.051       .  S
Co477       N484   2.082       .  S
Co477      Cl519   2.424       .  S
C478        N516   1.339       .  A
C478        C770   1.435       .  S
N479        N486   1.315       .  A
N479        N509   1.328   1_556  A
N479       Co512   2.091       .  S
N480        N516   1.308       .  A
N481        C510   1.365       .  A
N481        N491   1.336       .  A
H482        C507   1.078       .  S
N483        N504   1.326       .  A
N484        N502   1.320       .  A
N484        N489   1.327       .  A
C485        N489   1.348       .  A
C485        C513   1.459       .  S
C485        C673   1.484       .  S
N486        C501   1.336   1_556  A
N486       Co508   2.071       .  S
C487        N515   1.335       .  A
C487        C490   1.466       .  S
C487        H521   1.081       .  S
C490        N511   1.345       .  A
C490        C800   1.465       .  S
N491        N497   1.315       .  A
N492        C518   1.362       .  A
N492        N494   1.315       .  A
N492       Co508   2.144       .  S
N494        N522   1.316       .  A
N494       Co512   2.049       .  S
H495        C518   1.081       .  S
H496        C513   1.079       .  S
N498       Co512   2.030   1_554  S
N499        N511   1.318       .  A
N499        N515   1.320       .  A
N499       Co508   2.051       .  S
C500        N504   1.353       .  A
C500        C514   1.468       .  S
C500        C653   1.495       .  S
C501        H505   1.082       .  S
N502        C513   1.344       .  A
N502       Co512   2.103       .  S
C506        N522   1.338       .  A
C506        C518   1.489       .  S
C506        C663   1.504       .  S
Co508      Cl519   2.441       .  S
C510        C703   1.493       .  S
Co512      Cl519   2.441       .  S
C520        C690   1.483       .  S
C523        N541   1.343       .  A
C523        C560   1.464       .  S
C523        C670   1.475       .  S
N524        N541   1.322       .  A
N524        N546   1.324       .  A
N524       Co561   2.073       .  S
C525        N550   1.335       .  A
C525       C2219   1.459       .  S
C525        H570   1.082       .  S
H526        C567   1.080       .  S
C527        N551   1.336       .  A
C527        C531   1.448       .  S
C527        H556   1.079       .  S
Co528       N546   2.110       .  S
Co528       N536   2.108       .  S
Co528       N568   2.095       .  S
Co528       N544   2.105       .  S
Co528     Cl2228   2.464   1_455  S
N529        C567   1.346       .  A
N529        N536   1.318       .  A
N529      Co2186   2.108   1_455  S
Co530      N2185   2.108       .  S
Co530       N533   2.060       .  S
Co530       N550   2.074       .  S
Co530       N537   2.076       .  S
Co530      Cl572   2.429       .  S
C531        N569   1.345       .  A
C531        C823   1.461       .  S
N532        N539   1.316       .  A
N532        N562   1.334       .  A
N532       Co565   2.143       .  S
N533        N551   1.323       .  A
N533        N569   1.318       .  A
N534        C563   1.358       .  A
N534        N544   1.331       .  A
H535        C560   1.081       .  S
N536        N557   1.333       .  A
N537        N555   1.322       .  A
N537        N542   1.323       .  A
C538        N542   1.343       .  A
C538        C566   1.476       .  S
C538        C683   1.494       .  S
N539       C2210   1.337       .  A
N539      Co2217   2.052       .  S
C540        N568   1.342       .  A
C540        C543   1.468       .  S
C540        H574   1.080       .  S
C543        N564   1.332       .  A
C543        C763   1.461       .  S
N544       N2206   1.316   1_455  A
N545        C571   1.344       .  A
N545        N547   1.316       .  A
N545      Co2217   2.103       .  S
N546        C560   1.348       .  A
N547        N575   1.323       .  A
N547       Co565   2.062       .  S
H548        C571   1.081       .  S
H549        C566   1.081       .  S
N550       N2200   1.316       .  A
N551       Co565   2.062       .  S
N552        N564   1.315       .  A
N552        N568   1.321       .  A
N552       Co561   2.016       .  S
C553        N557   1.360       .  A
C553        C567   1.473       .  S
C553        C643   1.516       .  S
C554       N2195   1.337   1_455  A
C554       C2229   1.455   1_455  S
C554        H558   1.082       .  S
N555        C566   1.356       .  A
N555       Co565   2.126       .  S
C559        N575   1.350       .  A
C559        C571   1.463       .  S
C559        C630   1.486       .  S
Co561      N2195   2.052   1_455  S
Co561      N2201   2.103   1_455  S
Co561     Cl2228   2.436   1_455  S
N562        C573   1.363       .  A
C563       C2181   1.459   1_455  S
C563        C733   1.483       .  S
Co565      Cl572   2.465       .  S
Cl572     Co2184   2.464       .  S
Cl572     Co2217   2.436       .  S
C573       C2210   1.455       .  S
C573        C743   1.493       .  S
C576        N594   1.368       .  A
C576        C613   1.446       .  S
C576        C710   1.495       .  S
N577        N594   1.338       .  A
N577        N599   1.318       .  A
N577      Co1442   2.150       .  S
C578        N603   1.338       .  A
C578        C616   1.465       .  S
C578        H623   1.081       .  S
H579        C620   1.081       .  S
C580        N604   1.348       .  A
C580        C584   1.479       .  S
C580        H609   1.079       .  S
Co581      N1427   2.048       .  S
Co581      N1417   2.111   1_545  S
Co581       N621   2.142       .  S
Co581       N597   2.038       .  S
Co581     Cl1453   2.446       .  S
N582        C620   1.349       .  A
N582        N589   1.323       .  A
N582       Co583   2.116       .  S
Co583       N586   2.076       .  S
Co583      N1431   2.091       .  S
Co583      N1418   2.137       .  S
Co583      Cl625   2.467       .  S
C584        N622   1.351       .  A
C584        C650   1.501       .  S
N585        N592   1.323       .  A
N585        N615   1.317       .  A
N585       Co618   2.049       .  S
N586        N604   1.319       .  A
N586        N622   1.322       .  A
N587        C616   1.336       .  A
N587        N597   1.316       .  A
H588        C613   1.082       .  S
N589        N610   1.333       .  A
N589      Co1409   2.111       .  S
N590        N608   1.318       .  A
N590        N595   1.337       .  A
N590      Co1411   2.137       .  S
C591        N595   1.366       .  A
C591        C619   1.453       .  S
C591        C720   1.499       .  S
N592        C607   1.329       .  A
N592      Co1442   2.053       .  S
C593        N621   1.355       .  A
C593        C596   1.484       .  S
C593        H627   1.081       .  S
C596        N617   1.343       .  A
C596        C660   1.487       .  S
N597        N603   1.322       .  A
N598        C624   1.339       .  A
N598        N600   1.320       .  A
N598       Co614   2.095       .  S
N599        C613   1.332       .  A
N599      Co1409   2.048       .  S
N600        N628   1.328       .  A
N600      Co1446   2.093   1_545  S
H601        C624   1.080       .  S
H602        C619   1.082       .  S
N603      Co1411   2.091       .  S
N604       Co618   2.120       .  S
N605        N617   1.321       .  A
N605        N621   1.316       .  A
N605       Co614   2.051       .  S
C606        N610   1.355       .  A
C606        C620   1.464       .  S
C606        C640   1.500       .  S
C607        C626   1.452       .  S
C607        H611   1.081       .  S
N608        C619   1.335       .  A
N608      Co1446   2.059   1_545  S
C612        N628   1.354       .  A
C612        C624   1.464       .  S
C612        C633   1.495       .  S
Co614      N1405   2.150       .  S
Co614      N1420   2.053   1_545  S
Co614     Cl1453   2.460       .  S
N615        C626   1.338       .  A
C616        C753   1.453       .  S
Co618      N1428   2.093       .  S
Co618      N1436   2.059       .  S
Co618      Cl625   2.434       .  S
Cl625     Co1409   2.446       .  S
Cl625     Co1442   2.460       .  S
C626        C813   1.442       .  S
C629        H636   1.083       .  S
C629        C630   1.405       .  A
C629        C634   1.407       .  A
C630        C631   1.413       .  A
C631        C632   1.396       .  A
C631       Br638   1.923       .  S
C632        H637   1.081       .  S
C632        C633   1.406       .  A
C633        C634   1.417       .  A
C634       Br635   1.920       .  S
C639        H646   1.084       .  S
C639        C640   1.402       .  A
C639        C644   1.412       .  A
C640        C641   1.411       .  A
C641        C642   1.414       .  A
C641       Br648   1.917       .  S
C642        H647   1.083       .  S
C642        C643   1.411       .  A
C643        C644   1.425       .  A
C644       Br645   1.917       .  S
C649        H656   1.084       .  S
C649        C650   1.409       .  A
C649        C654   1.404       .  A
C650        C651   1.418       .  A
C651        C652   1.406       .  A
C651       Br658   1.916       .  S
C652        H657   1.084       .  S
C652        C653   1.406       .  A
C653        C654   1.413       .  A
C654       Br655   1.919       .  S
C659        H666   1.084       .  S
C659        C660   1.395       .  A
C659        C664   1.400       .  A
C660        C661   1.413       .  A
C661        C662   1.414       .  A
C661       Br668   1.916       .  S
C662        H667   1.083       .  S
C662        C663   1.408       .  A
C663        C664   1.426       .  A
C664       Br665   1.925       .  S
C669        H676   1.084       .  S
C669        C670   1.397       .  A
C669        C674   1.400       .  A
C670        C671   1.411       .  A
C671        C672   1.402       .  A
C671       Br678   1.920       .  S
C672        H677   1.084       .  S
C672        C673   1.402       .  A
C673        C674   1.416       .  A
C674       Br675   1.914       .  S
C679        H686   1.083       .  S
C679        C680   1.410       .  A
C679        C684   1.411       .  A
C680        C681   1.405       .  A
C681        C682   1.406       .  A
C681       Br688   1.915       .  S
C682        H687   1.084       .  S
C682        C683   1.410       .  A
C683        C684   1.409       .  A
C684       Br685   1.916       .  S
C689        H696   1.084       .  S
C689        C690   1.408       .  A
C689        C694   1.401       .  A
C690        C691   1.413       .  A
C691        C692   1.400       .  A
C692        H697   1.084       .  S
C692        C693   1.406       .  A
C693        C694   1.401       .  A
C694       Br695   1.913       .  S
C699        H706   1.083       .  S
C699        C700   1.412       .  A
C699        C704   1.409       .  A
C700        C701   1.402       .  A
C701        C702   1.400       .  A
C701       Br708   1.911       .  S
C702        H707   1.084       .  S
C702        C703   1.409       .  A
C703        C704   1.412       .  A
C704       Br705   1.918       .  S
C709        H716   1.083       .  S
C709       C1538   1.410   1_545  A
C709        C714   1.416       .  A
C710       C1537   1.410       .  A
C710        C711   1.413       .  A
C711       C1540   1.403       .  A
C711       Br718   1.921       .  S
C712       H1545   1.083       .  S
C712       C1539   1.403       .  A
C712        C713   1.403   1_565  A
C713        C714   1.413       .  A
C714       Br715   1.916       .  S
H717       C1540   1.083       .  S
C719        H726   1.084       .  S
C719       C1548   1.408       .  A
C719        C724   1.405       .  A
C720       C1547   1.408   1_545  A
C720        C721   1.410       .  A
C721       C1550   1.416       .  A
C721       Br728   1.914       .  S
C722        H727   1.083       .  S
C722       C1549   1.416       .  A
C722        C723   1.411       .  A
C723        C724   1.412       .  A
C724       Br725   1.921       .  S
C729        H736   1.083       .  S
C729        C730   1.409       .  A
C729        C734   1.411       .  A
C730        C731   1.409       .  A
C731        C732   1.395       .  A
C731       Br738   1.921       .  S
C732        H737   1.081       .  S
C732        C733   1.402       .  A
C733        C734   1.409       .  A
C734       Br735   1.916       .  S
C739        H746   1.083       .  S
C739        C740   1.403       .  A
C739        C744   1.406       .  A
C740        C741   1.412       .  A
C741        C742   1.409       .  A
C741       Br748   1.918       .  S
C742        H747   1.081       .  S
C742        C743   1.406       .  A
C743        C744   1.413       .  A
C744      Br2401   1.919       .  S
Br745      C2400   1.919       .  S
C749        H756   1.077       .  S
C749        C750   1.433       .  A
C749        C754   1.381       .  A
C750        C751   1.421       .  A
C751        C752   1.397       .  A
C751       Br758   1.903       .  S
C752        H757   1.084       .  S
C752        C753   1.400       .  A
C753        C754   1.390       .  A
C754       Br755   1.922       .  S
C759        H766   1.083       .  S
C759        C760   1.412       .  A
C759        C764   1.391       .  A
C760        C761   1.452       .  A
C761        C762   1.388       .  A
C761       Br768   1.940       .  S
C762        H767   1.084       .  S
C762        C763   1.381       .  A
C763        C764   1.401       .  A
C764       Br765   1.916   1_455  S
C769        H776   1.085       .  S
C769        C770   1.387       .  A
C769        C774   1.377       .  A
C770        C771   1.419       .  A
C771        C772   1.373       .  A
C772        H777   1.074       .  S
C772        C773   1.399       .  A
C773        C774   1.430       .  A
C774       Br775   1.923       .  S
C779        H786   1.067       .  S
C779        C780   1.430       .  A
C779        C784   1.375       .  A
C780        C781   1.430       .  A
C781        C782   1.390       .  A
C781       Br788   1.917       .  S
C782        H787   1.085       .  S
C782        C783   1.392       .  A
C783        C784   1.377       .  A
C784       Br785   1.925       .  S
C789        H796   1.079       .  S
C789        C790   1.418       .  A
C789        C794   1.388       .  A
C790        C791   1.413       .  A
C791        C792   1.400       .  A
C791       Br798   1.915       .  S
C792        H797   1.083       .  S
C792        C793   1.400       .  A
C793        C794   1.403       .  A
C794       Br795   1.919       .  S
C799        H806   1.084       .  S
C799        C800   1.387       .  A
C799        C804   1.392       .  A
C800        C801   1.396       .  A
C801        C802   1.391       .  A
C801       Br808   1.917       .  S
C802        H807   1.075       .  S
C802        C803   1.419       .  A
C803        C804   1.444       .  A
C804       Br805   1.930       .  S
C809        H816   1.064       .  S
C809        C810   1.400       .  A
C809        C814   1.383       .  A
C810        C811   1.428       .  A
C811        C812   1.388       .  A
C811       Br818   1.918       .  S
C812        H817   1.084       .  S
C812        C813   1.392       .  A
C813        C814   1.400       .  A
C814       Br815   1.920       .  S
C819        H826   1.079       .  S
C819        C820   1.424       .  A
C819        C824   1.380       .  A
C820        C821   1.421       .  A
C821        C822   1.398       .  A
C821       Br828   1.926       .  S
C822        H827   1.083       .  S
C822        C823   1.404       .  A
C823        C824   1.395       .  A
C824       Br825   1.924       .  S
C829       C1204   1.572       .  S
C829       C1217   1.561       .  S
C829       C1224   1.546       .  S
C829       C1234   1.547       .  S
C830       C1164   1.578       .  S
C830       C1174   1.541       .  S
C830       C1187   1.514       .  S
C830       C1194   1.573       .  S
C831        N849   1.362       .  A
C831        C868   1.447       .  S
C831       C1114   1.487       .  S
N832        N849   1.334       .  A
N832        N854   1.318       .  A
C833        N858   1.324       .  A
C833        C871   1.445       .  S
C833       H2534   1.082       .  S
H834        C875   1.082       .  S
C835        N859   1.353       .  A
C835        C839   1.474   1_545  S
C835        H864   1.081       .  S
Co836       N854   2.039       .  S
Co836      N1258   2.102       .  S
Co836     Cl1708   2.440   1_465  S
N837        C875   1.339       .  A
N837       N2500   1.322       .  A
N837       Co838   2.090   1_565  S
Co838       N841   2.070   1_545  S
Co838      N1686   2.048       .  S
C839       N1291   1.351       .  A
C839       C1551   1.500       .  S
N840        N847   1.327       .  A
N840        N870   1.320       .  A
N841       N1273   1.318   1_564  A
N841        N877   1.325       .  A
N842        C871   1.340       .  A
N842        N852   1.318       .  A
H843        C868   1.082       .  S
N844       N2493   1.322   1_455  A
N844        N865   1.329       .  A
N844      Co1250   2.102   1_554  S
N845       N1277   1.320   1_554  A
N845        N850   1.330       .  A
C846        N850   1.358       .  A
C846       C1288   1.452   1_554  S
C846       C1107   1.476       .  S
N847        C862   1.334       .  A
N847      Co1697   2.100       .  S
C848        N876   1.351       .  A
C848        C851   1.473       .  S
C848        H882   1.081       .  S
C851        N872   1.353       .  A
C851       C1127   1.497       .  S
N852        N858   1.319       .  A
N853        C879   1.349       .  A
N853        N855   1.321       .  A
N853      Co2525   2.111       .  S
N854        C868   1.332       .  A
N855        N883   1.329       .  A
N855       Co873   2.091       .  S
H856        C879   1.081       .  S
H857        C874   1.082       .  S
N858      Co1666   2.048   1_455  S
N859       N1255   1.318   1_545  A
N860        N872   1.326       .  A
N860        N876   1.323       .  A
N860       Co869   2.086       .  S
C861        N865   1.352       .  A
C861       C2531   1.462   1_455  S
C861       C1144   1.485       .  S
C862        C881   1.460       .  S
C862        H866   1.081       .  S
N863        C874   1.329       .  A
N863       N1259   1.320       .  A
N863       Co873   2.048       .  S
C867        N883   1.350       .  A
C867        C879   1.466       .  S
C867       C1154   1.491       .  S
Co869      N1675   2.100   1_455  S
Co869      N2509   2.111   1_455  S
Co869     Cl2536   2.462   1_455  S
N870        C881   1.334       .  A
C871       C1197   1.429       .  S
Co873      Cl880   2.453       .  S
C874       C1260   1.452       .  S
C875       C2517   1.462       .  S
N877       C1253   1.351       .  A
H878       C2489   1.082       .  S
Cl880     Co1664   2.440       .  S
Cl880     Co2525   2.462       .  S
C881       C1207   1.461       .  S
C884        N902   1.352       .  A
C884        C921   1.456       .  S
C884       C1094   1.493       .  S
N885       N1316   1.331       .  A
N885        N907   1.323       .  A
N885       Co922   2.107       .  S
C886        N911   1.329       .  A
C886        C924   1.449       .  S
C886        H931   1.082       .  S
H887        C928   1.080       .  S
C888       N1326   1.327       .  A
C888        C892   1.451       .  S
C888        H917   1.082       .  S
Co889       N907   2.105       .  S
Co889      N1311   2.097       .  S
Co889       N929   2.077       .  S
Co889       N905   2.125       .  S
Co889      Cl933   2.462       .  S
N890        C928   1.345       .  A
N890        N897   1.316       .  A
N890      Co1305   2.094   1_554  S
Co891      N1304   2.094       .  S
Co891      N1308   2.024       .  S
Co891       N911   2.051       .  S
Co891       N898   2.082       .  S
Co891      Cl933   2.424       .  S
C892        N930   1.339       .  A
C892       C1184   1.435       .  S
N893        N900   1.315       .  A
N893        N923   1.328       .  A
N893       Co926   2.091       .  S
N894       N1326   1.312       .  A
N894        N930   1.308       .  A
N894      Co1305   2.024   1_554  S
N895        C924   1.365       .  A
N895        N905   1.336       .  A
H896        C921   1.078       .  S
N897        N918   1.326       .  A
N897      Co1303   2.097   1_554  S
N898        N916   1.320       .  A
N898        N903   1.327       .  A
C899        N903   1.348       .  A
C899        C927   1.459       .  S
C899       C1087   1.484       .  S
N900        C915   1.336       .  A
N900       Co922   2.071       .  S
C901        N929   1.335       .  A
C901        C904   1.466       .  S
C901        H935   1.081       .  S
N902       N1299   1.331   1_554  A
C904        N925   1.345       .  A
C904       C1214   1.465       .  S
N905        N911   1.315       .  A
N906        C932   1.362       .  A
N906        N908   1.315       .  A
N906       Co922   2.144       .  S
N907       C1335   1.346       .  A
N908        N936   1.316       .  A
N908       Co926   2.049       .  S
H909        C932   1.081       .  S
H910        C927   1.079       .  S
N912       C1302   1.327       .  A
N912       N1308   1.312       .  A
N912       Co926   2.030       .  S
N913        N925   1.318       .  A
N913        N929   1.320       .  A
N913       Co922   2.051       .  S
C914        N918   1.353       .  A
C914        C928   1.468       .  S
C914       C1067   1.495       .  S
C915       C1348   1.458       .  S
C915        H919   1.082       .  S
N916        C927   1.344       .  A
N916       Co926   2.103       .  S
C920        N936   1.338       .  A
C920        C932   1.489       .  S
C920       C1077   1.504       .  S
C921       N1321   1.346   1_554  A
Co922      Cl933   2.441       .  S
N923       C1348   1.355       .  A
C924       C1117   1.493       .  S
Co926      Cl933   2.441       .  S
C934       N1337   1.355       .  A
C934       C1329   1.458       .  S
C934       C1104   1.483       .  S
C937        N955   1.343       .  A
C937        C974   1.464       .  S
C937       C1084   1.475       .  S
N938        N955   1.322       .  A
N938        N960   1.324       .  A
N938       Co975   2.073       .  S
C939        N964   1.335       .  A
C939       C2633   1.459       .  S
C939        H984   1.082       .  S
H940        C981   1.080       .  S
C941        N965   1.336       .  A
C941        C945   1.448       .  S
C941        H970   1.079       .  S
Co942       N960   2.110       .  S
Co942       N950   2.108       .  S
Co942       N982   2.095       .  S
Co942       N958   2.105       .  S
Co942     Cl2642   2.464   1_455  S
N943        C981   1.346       .  A
N943        N950   1.318       .  A
N943      Co2600   2.108   1_455  S
Co944      N2599   2.108       .  S
Co944       N947   2.060       .  S
Co944       N964   2.074       .  S
Co944       N951   2.076       .  S
Co944      Cl986   2.429       .  S
C945        N983   1.345       .  A
C945       C1237   1.461       .  S
N946        N953   1.316       .  A
N946        N976   1.334       .  A
N946       Co979   2.143       .  S
N947        N965   1.323       .  A
N947        N983   1.318       .  A
N948        C977   1.358       .  A
N948        N958   1.331       .  A
H949        C974   1.081       .  S
N950        N971   1.333       .  A
N951        N969   1.322       .  A
N951        N956   1.323       .  A
C952        N956   1.343       .  A
C952        C980   1.476       .  S
C952       C1097   1.494       .  S
N953       C2624   1.337       .  A
N953      Co2631   2.052       .  S
C954        N982   1.342       .  A
C954        C957   1.468       .  S
C954        H988   1.080       .  S
C957        N978   1.332       .  A
C957       C1177   1.461       .  S
N958       N2620   1.316   1_455  A
N959        C985   1.344       .  A
N959        N961   1.316       .  A
N959      Co2631   2.103       .  S
N960        C974   1.348       .  A
N961        N989   1.323       .  A
N961       Co979   2.062       .  S
H962        C985   1.081       .  S
H963        C980   1.081       .  S
N964       N2614   1.316       .  A
N965       Co979   2.062       .  S
N966        N978   1.315       .  A
N966        N982   1.321       .  A
N966       Co975   2.016       .  S
C967        N971   1.360       .  A
C967        C981   1.473       .  S
C967       C1057   1.516       .  S
C968       N2609   1.337   1_455  A
C968       C2643   1.455   1_455  S
C968        H972   1.082       .  S
N969        C980   1.356       .  A
N969       Co979   2.126       .  S
C973        N989   1.350       .  A
C973        C985   1.463       .  S
C973       C1044   1.486       .  S
Co975      N2609   2.052   1_455  S
Co975      N2615   2.103   1_455  S
Co975     Cl2642   2.436   1_455  S
N976        C987   1.363       .  A
C977       C2595   1.459   1_455  S
C977       C1147   1.483       .  S
Co979      Cl986   2.465       .  S
Cl986     Co2598   2.464       .  S
Cl986     Co2631   2.436       .  S
C987       C2624   1.455       .  S
C987       C1157   1.493       .  S
C990       N1008   1.368       .  A
C990       C1027   1.446   1_565  S
C990       C1124   1.495       .  S
N991       N1008   1.338   1_545  A
N991       N1013   1.318       .  A
C992       N1017   1.338       .  A
C992       C1030   1.465       .  S
C992       H1037   1.081       .  S
H993       C1034   1.081       .  S
C994       N1018   1.348       .  A
C994        C998   1.479       .  S
C994       H1023   1.079       .  S
Co995      N1035   2.142       .  S
Co995      N1011   2.038       .  S
N996       C1034   1.349       .  A
N996       N1003   1.323       .  A
N996       Co997   2.116   1_565  S
Co997      N1000   2.076   1_545  S
Co997     Cl1039   2.467       .  S
C998       N1036   1.351       .  A
C998       C1064   1.501       .  S
N999       N1006   1.323       .  A
N999       N1029   1.317       .  A
N999      Co1032   2.049       .  S
N1000      N1018   1.319       .  A
N1000      N1036   1.322       .  A
N1001      C1030   1.336       .  A
N1001      N1011   1.316       .  A
H1002      C1027   1.082       .  S
N1003      N1024   1.333       .  A
N1004      N1022   1.318       .  A
N1004      N1009   1.337       .  A
C1005      N1009   1.366       .  A
C1005      C1033   1.453       .  S
C1005      C1134   1.499       .  S
N1006      C1021   1.329       .  A
C1007      N1035   1.355       .  A
C1007      C1010   1.484       .  S
C1007      H1041   1.081       .  S
C1010      N1031   1.343       .  A
C1010      C1074   1.487       .  S
N1011      N1017   1.322       .  A
N1012      C1038   1.339       .  A
N1012      N1014   1.320       .  A
N1012     Co1028   2.095       .  S
N1013      C1027   1.332       .  A
N1014      N1042   1.328       .  A
H1015      C1038   1.080       .  S
H1016      C1033   1.082       .  S
N1018     Co1032   2.120       .  S
N1019      N1031   1.321       .  A
N1019      N1035   1.316       .  A
N1019     Co1028   2.051       .  S
C1020      N1024   1.355       .  A
C1020      C1034   1.464       .  S
C1020      C1054   1.500       .  S
C1021      C1040   1.452       .  S
C1021      H1025   1.081       .  S
N1022      C1033   1.335       .  A
C1026      N1042   1.354       .  A
C1026      C1038   1.464       .  S
C1026      C1047   1.495       .  S
N1029      C1040   1.338       .  A
C1030      C1167   1.453       .  S
Co1032    Cl1039   2.434   1_565  S
C1040      C1227   1.442       .  S
C1043      H1050   1.083       .  S
C1043      C1044   1.405       .  A
C1043      C1048   1.407       .  A
C1044      C1045   1.413       .  A
C1045      C1046   1.396       .  A
C1045     Br1052   1.923       .  S
C1046      H1051   1.081       .  S
C1046      C1047   1.406       .  A
C1047      C1048   1.417       .  A
C1048     Br1049   1.920       .  S
C1053      H1060   1.084       .  S
C1053      C1054   1.402       .  A
C1053      C1058   1.412       .  A
C1054      C1055   1.411       .  A
C1055      C1056   1.414       .  A
C1055     Br1062   1.917       .  S
C1056      H1061   1.083       .  S
C1056      C1057   1.411       .  A
C1057      C1058   1.425       .  A
C1058     Br1059   1.917       .  S
C1063      H1070   1.084       .  S
C1063      C1064   1.409       .  A
C1063      C1068   1.404       .  A
C1064      C1065   1.418       .  A
C1065      C1066   1.406       .  A
C1065     Br1072   1.916       .  S
C1066      H1071   1.084       .  S
C1066      C1067   1.406       .  A
C1067      C1068   1.413       .  A
C1068     Br1069   1.919       .  S
C1073      H1080   1.084       .  S
C1073      C1074   1.395       .  A
C1073      C1078   1.400       .  A
C1074      C1075   1.413       .  A
C1075      C1076   1.414       .  A
C1075     Br1082   1.916       .  S
C1076      H1081   1.083       .  S
C1076      C1077   1.408       .  A
C1077      C1078   1.426       .  A
C1078     Br1079   1.925       .  S
C1083      H1090   1.084       .  S
C1083      C1084   1.397       .  A
C1083      C1088   1.400       .  A
C1084      C1085   1.411       .  A
C1085      C1086   1.402       .  A
C1085     Br1092   1.920       .  S
C1086      H1091   1.084       .  S
C1086      C1087   1.402       .  A
C1087      C1088   1.416       .  A
C1088     Br1089   1.914       .  S
C1093      H1100   1.083       .  S
C1093      C1094   1.410       .  A
C1093      C1098   1.411       .  A
C1094      C1095   1.405       .  A
C1095      C1096   1.406       .  A
C1095     Br1102   1.915       .  S
C1096      H1101   1.084       .  S
C1096      C1097   1.410       .  A
C1097      C1098   1.409       .  A
C1098     Br1099   1.916       .  S
C1103      H1110   1.084       .  S
C1103      C1104   1.408       .  A
C1103      C1108   1.401       .  A
C1104      C1105   1.413       .  A
C1105      C1106   1.400       .  A
C1105     Br1526   1.921       .  S
C1106      H1111   1.084       .  S
C1106      C1107   1.406       .  A
C1107      C1108   1.401       .  A
C1108     Br1109   1.913       .  S
Br1112     C1519   1.921       .  S
C1113      H1120   1.083       .  S
C1113      C1114   1.412       .  A
C1113      C1118   1.409       .  A
C1114      C1115   1.402       .  A
C1115      C1116   1.400       .  A
C1115     Br1122   1.911       .  S
C1116      H1121   1.084       .  S
C1116      C1117   1.409       .  A
C1117      C1118   1.412       .  A
C1118     Br1119   1.918       .  S
C1123      H1130   1.083       .  S
C1123      C1128   1.416       .  A
C1124      C1125   1.413       .  A
C1125     Br1132   1.921       .  S
C1126      C1127   1.403       .  A
C1127      C1128   1.413       .  A
C1128     Br1129   1.916       .  S
C1133      H1140   1.084       .  S
C1133      C1138   1.405       .  A
C1134      C1135   1.410       .  A
C1135     Br1142   1.914       .  S
C1136      H1141   1.083       .  S
C1136      C1137   1.411   1_545  A
C1137      C1253   1.500       .  S
C1137      C1138   1.412       .  A
C1138     Br1139   1.921       .  S
C1143      H1150   1.083       .  S
C1143      C1144   1.409       .  A
C1143      C1148   1.411       .  A
C1144      C1145   1.409       .  A
C1145      C1146   1.395       .  A
C1145     Br1152   1.921       .  S
C1146      H1151   1.081       .  S
C1146      C1147   1.402       .  A
C1147      C1148   1.409       .  A
C1148     Br1149   1.916       .  S
C1153      H1160   1.083       .  S
C1153      C1154   1.403       .  A
C1153      C1158   1.406       .  A
C1154      C1155   1.412       .  A
C1155      C1156   1.409       .  A
C1155     Br1162   1.918       .  S
C1156      H1161   1.081       .  S
C1156      C1157   1.406       .  A
C1157      C1158   1.413       .  A
C1158     Br2815   1.919       .  S
Br1159     C2814   1.919       .  S
C1163      H1170   1.077       .  S
C1163      C1164   1.433       .  A
C1163      C1168   1.381       .  A
C1164      C1165   1.421       .  A
C1165      C1166   1.397       .  A
C1165     Br1172   1.903       .  S
C1166      H1171   1.084       .  S
C1166      C1167   1.400       .  A
C1167      C1168   1.390       .  A
C1168     Br1169   1.922       .  S
C1173      H1180   1.083       .  S
C1173      C1174   1.412       .  A
C1173      C1178   1.391       .  A
C1174      C1175   1.452       .  A
C1175      C1176   1.388       .  A
C1175     Br1182   1.940       .  S
C1176      H1181   1.084       .  S
C1176      C1177   1.381       .  A
C1177      C1178   1.401       .  A
C1178     Br1179   1.916   1_455  S
C1183      H1190   1.085       .  S
C1183      C1184   1.387       .  A
C1183      C1188   1.377       .  A
C1184      C1185   1.419       .  A
C1185      C1186   1.373       .  A
C1185     Br1606   1.929       .  S
C1186      H1191   1.074       .  S
C1186      C1187   1.399       .  A
C1187      C1188   1.430       .  A
C1188     Br1189   1.923       .  S
Br1192     C1599   1.929       .  S
C1193      H1200   1.067       .  S
C1193      C1194   1.430       .  A
C1193      C1198   1.375       .  A
C1194      C1195   1.430       .  A
C1195      C1196   1.390       .  A
C1195     Br1202   1.917       .  S
C1196      H1201   1.085       .  S
C1196      C1197   1.392       .  A
C1197      C1198   1.377       .  A
C1198     Br1199   1.925       .  S
C1203      H1210   1.079       .  S
C1203      C1204   1.418       .  A
C1203      C1208   1.388       .  A
C1204      C1205   1.413       .  A
C1205      C1206   1.400       .  A
C1205     Br1212   1.915       .  S
C1206      H1211   1.083       .  S
C1206      C1207   1.400       .  A
C1207      C1208   1.403       .  A
C1208     Br1209   1.919       .  S
C1213      H1220   1.084       .  S
C1213      C1214   1.387       .  A
C1213      C1218   1.392       .  A
C1214      C1215   1.396       .  A
C1215      C1216   1.391       .  A
C1215     Br1222   1.917       .  S
C1216      H1221   1.075       .  S
C1216      C1217   1.419       .  A
C1217      C1218   1.444       .  A
C1218     Br1219   1.930       .  S
C1223      H1230   1.064       .  S
C1223      C1224   1.400       .  A
C1223      C1228   1.383       .  A
C1224      C1225   1.428       .  A
C1225      C1226   1.388       .  A
C1225     Br1232   1.918       .  S
C1226      H1231   1.084       .  S
C1226      C1227   1.392       .  A
C1227      C1228   1.400       .  A
C1228     Br1229   1.920       .  S
C1233      H1240   1.079       .  S
C1233      C1234   1.424       .  A
C1233      C1238   1.380       .  A
C1234      C1235   1.421       .  A
C1235      C1236   1.398       .  A
C1235     Br1242   1.926       .  S
C1236      H1241   1.083       .  S
C1236      C1237   1.404       .  A
C1237      C1238   1.395       .  A
C1238     Br1239   1.924       .  S
C1243      C1618   1.572       .  S
C1243      C1631   1.561       .  S
C1243      C1638   1.546       .  S
C1243      C1648   1.547       .  S
C1244      C1578   1.578       .  S
C1244      C1588   1.541       .  S
C1244      C1601   1.514       .  S
C1244      C1608   1.573       .  S
C1245      N1263   1.362       .  A
C1245      C1282   1.447       .  S
C1245      C1528   1.487       .  S
N1246      N1263   1.334       .  A
N1246      N1268   1.318       .  A
C1247      N1272   1.324       .  A
C1247      C1285   1.445       .  S
C1247      H2948   1.082       .  S
H1248      C1289   1.082       .  S
C1249      N1273   1.353       .  A
C1249      C1253   1.474   1_546  S
C1249      H1278   1.081       .  S
Co1250     N1268   2.039       .  S
Co1250    Cl2122   2.440   1_465  S
N1251      C1289   1.339       .  A
N1251      N2914   1.322       .  A
N1251     Co1252   2.090   1_565  S
Co1252     N1255   2.070   1_545  S
Co1252     N2100   2.048       .  S
N1254      N1261   1.327       .  A
N1254      N1284   1.320       .  A
N1255      N1291   1.325       .  A
N1256      C1285   1.340       .  A
N1256      N1266   1.318       .  A
H1257      C1282   1.082       .  S
N1258      N2907   1.322   1_455  A
N1258      N1279   1.329       .  A
N1259      N1264   1.330       .  A
C1260      N1264   1.358       .  A
C1260      C1521   1.476       .  S
N1261      C1276   1.334       .  A
N1261     Co2111   2.100       .  S
C1262      N1290   1.351       .  A
C1262      C1265   1.473       .  S
C1262      H1296   1.081       .  S
C1265      N1286   1.353       .  A
C1265      C1541   1.497       .  S
N1266      N1272   1.319       .  A
N1267      C1293   1.349       .  A
N1267      N1269   1.321       .  A
N1267     Co2939   2.111       .  S
N1268      C1282   1.332       .  A
N1269      N1297   1.329       .  A
N1269     Co1287   2.091       .  S
H1270      C1293   1.081       .  S
H1271      C1288   1.082       .  S
N1272     Co2080   2.048   1_455  S
N1274      N1286   1.326       .  A
N1274      N1290   1.323       .  A
N1274     Co1283   2.086       .  S
C1275      N1279   1.352       .  A
C1275      C2945   1.462   1_455  S
C1275      C1558   1.485       .  S
C1276      C1295   1.460       .  S
C1276      H1280   1.081       .  S
N1277      C1288   1.329       .  A
N1277     Co1287   2.048       .  S
C1281      N1297   1.350       .  A
C1281      C1293   1.466       .  S
C1281      C1568   1.491       .  S
Co1283     N2089   2.100   1_455  S
Co1283     N2923   2.111   1_455  S
Co1283    Cl2950   2.462   1_455  S
N1284      C1295   1.334       .  A
C1285      C1611   1.429       .  S
Co1287    Cl1294   2.453       .  S
C1289      C2931   1.462       .  S
H1292      C2903   1.082       .  S
Cl1294    Co2078   2.440       .  S
Cl1294    Co2939   2.462       .  S
C1295      C1621   1.461       .  S
C1298      N1316   1.352       .  A
C1298      C1335   1.456       .  S
C1298      C1508   1.493       .  S
N1299      N1321   1.323       .  A
N1299     Co1336   2.107       .  S
C1300      N1325   1.329       .  A
C1300      C1338   1.449       .  S
C1300      H1345   1.082       .  S
H1301      C1342   1.080       .  S
C1302      C1306   1.451       .  S
C1302      H1331   1.082       .  S
Co1303     N1321   2.105       .  S
Co1303     N1343   2.077       .  S
Co1303     N1319   2.125       .  S
Co1303    Cl1347   2.462       .  S
N1304      C1342   1.345       .  A
N1304      N1311   1.316       .  A
Co1305     N1325   2.051       .  S
Co1305     N1312   2.082       .  S
Co1305    Cl1347   2.424       .  S
C1306      N1344   1.339       .  A
C1306      C1598   1.435       .  S
N1307      N1314   1.315       .  A
N1307      N1337   1.328   1_556  A
N1307     Co1340   2.091       .  S
N1308      N1344   1.308       .  A
N1309      C1338   1.365       .  A
N1309      N1319   1.336       .  A
H1310      C1335   1.078       .  S
N1311      N1332   1.326       .  A
N1312      N1330   1.320       .  A
N1312      N1317   1.327       .  A
C1313      N1317   1.348       .  A
C1313      C1341   1.459       .  S
C1313      C1501   1.484       .  S
N1314      C1329   1.336   1_556  A
N1314     Co1336   2.071       .  S
C1315      N1343   1.335       .  A
C1315      C1318   1.466       .  S
C1315      H1349   1.081       .  S
C1318      N1339   1.345       .  A
C1318      C1628   1.465       .  S
N1319      N1325   1.315       .  A
N1320      C1346   1.362       .  A
N1320      N1322   1.315       .  A
N1320     Co1336   2.144       .  S
N1322      N1350   1.316       .  A
N1322     Co1340   2.049       .  S
H1323      C1346   1.081       .  S
H1324      C1341   1.079       .  S
N1326     Co1340   2.030   1_554  S
N1327      N1339   1.318       .  A
N1327      N1343   1.320       .  A
N1327     Co1336   2.051       .  S
C1328      N1332   1.353       .  A
C1328      C1342   1.468       .  S
C1328      C1481   1.495       .  S
C1329      H1333   1.082       .  S
N1330      C1341   1.344       .  A
N1330     Co1340   2.103       .  S
C1334      N1350   1.338       .  A
C1334      C1346   1.489       .  S
C1334      C1491   1.504       .  S
Co1336    Cl1347   2.441       .  S
C1338      C1531   1.493       .  S
Co1340    Cl1347   2.441       .  S
C1348      C1518   1.483       .  S
C1351      N1369   1.343       .  A
C1351      C1388   1.464       .  S
C1351      C1498   1.475       .  S
N1352      N1369   1.322       .  A
N1352      N1374   1.324       .  A
N1352     Co1389   2.073       .  S
C1353      N1378   1.335       .  A
C1353      C3047   1.459       .  S
C1353      H1398   1.082       .  S
H1354      C1395   1.080       .  S
C1355      N1379   1.336       .  A
C1355      C1359   1.448       .  S
C1355      H1384   1.079       .  S
Co1356     N1374   2.110       .  S
Co1356     N1364   2.108       .  S
Co1356     N1396   2.095       .  S
Co1356     N1372   2.105       .  S
Co1356    Cl3056   2.464   1_455  S
N1357      C1395   1.346       .  A
N1357      N1364   1.318       .  A
N1357     Co3014   2.108   1_455  S
Co1358     N3013   2.108       .  S
Co1358     N1361   2.060       .  S
Co1358     N1378   2.074       .  S
Co1358     N1365   2.076       .  S
Co1358    Cl1400   2.429       .  S
C1359      N1397   1.345       .  A
C1359      C1651   1.461       .  S
N1360      N1367   1.316       .  A
N1360      N1390   1.334       .  A
N1360     Co1393   2.143       .  S
N1361      N1379   1.323       .  A
N1361      N1397   1.318       .  A
N1362      C1391   1.358       .  A
N1362      N1372   1.331       .  A
H1363      C1388   1.081       .  S
N1364      N1385   1.333       .  A
N1365      N1383   1.322       .  A
N1365      N1370   1.323       .  A
C1366      N1370   1.343       .  A
C1366      C1394   1.476       .  S
C1366      C1511   1.494       .  S
N1367      C3038   1.337       .  A
N1367     Co3045   2.052       .  S
C1368      N1396   1.342       .  A
C1368      C1371   1.468       .  S
C1368      H1402   1.080       .  S
C1371      N1392   1.332       .  A
C1371      C1591   1.461       .  S
N1372      N3034   1.316   1_455  A
N1373      C1399   1.344       .  A
N1373      N1375   1.316       .  A
N1373     Co3045   2.103       .  S
N1374      C1388   1.348       .  A
N1375      N1403   1.323       .  A
N1375     Co1393   2.062       .  S
H1376      C1399   1.081       .  S
H1377      C1394   1.081       .  S
N1378      N3028   1.316       .  A
N1379     Co1393   2.062       .  S
N1380      N1392   1.315       .  A
N1380      N1396   1.321       .  A
N1380     Co1389   2.016       .  S
C1381      N1385   1.360       .  A
C1381      C1395   1.473       .  S
C1381      C1471   1.516       .  S
C1382      N3023   1.337   1_455  A
C1382      C3057   1.455   1_455  S
C1382      H1386   1.082       .  S
N1383      C1394   1.356       .  A
N1383     Co1393   2.126       .  S
C1387      N1403   1.350       .  A
C1387      C1399   1.463       .  S
C1387      C1458   1.486       .  S
Co1389     N3023   2.052   1_455  S
Co1389     N3029   2.103   1_455  S
Co1389    Cl3056   2.436   1_455  S
N1390      C1401   1.363       .  A
C1391      C3009   1.459   1_455  S
C1391      C1561   1.483       .  S
Co1393    Cl1400   2.465       .  S
Cl1400    Co3012   2.464       .  S
Cl1400    Co3045   2.436       .  S
C1401      C3038   1.455       .  S
C1401      C1571   1.493       .  S
C1404      N1422   1.368       .  A
C1404      C1441   1.446   1_565  S
C1404      C1538   1.495       .  S
N1405      N1422   1.338   1_545  A
N1405      N1427   1.318       .  A
C1406      N1431   1.338       .  A
C1406      C1444   1.465       .  S
C1406      H1451   1.081       .  S
H1407      C1448   1.081       .  S
C1408      N1432   1.348       .  A
C1408      C1412   1.479       .  S
C1408      H1437   1.079       .  S
Co1409     N1449   2.142       .  S
Co1409     N1425   2.038       .  S
N1410      C1448   1.349       .  A
N1410      N1417   1.323       .  A
N1410     Co1411   2.116   1_565  S
Co1411     N1414   2.076   1_545  S
Co1411    Cl1453   2.467       .  S
C1412      N1450   1.351       .  A
C1412      C1478   1.501       .  S
N1413      N1420   1.323       .  A
N1413      N1443   1.317       .  A
N1413     Co1446   2.049       .  S
N1414      N1432   1.319       .  A
N1414      N1450   1.322       .  A
N1415      C1444   1.336       .  A
N1415      N1425   1.316       .  A
H1416      C1441   1.082       .  S
N1417      N1438   1.333       .  A
N1418      N1436   1.318       .  A
N1418      N1423   1.337       .  A
C1419      N1423   1.366       .  A
C1419      C1447   1.453       .  S
C1419      C1548   1.499       .  S
N1420      C1435   1.329       .  A
C1421      N1449   1.355       .  A
C1421      C1424   1.484       .  S
C1421      H1455   1.081       .  S
C1424      N1445   1.343       .  A
C1424      C1488   1.487       .  S
N1425      N1431   1.322       .  A
N1426      C1452   1.339       .  A
N1426      N1428   1.320       .  A
N1426     Co1442   2.095       .  S
N1427      C1441   1.332       .  A
N1428      N1456   1.328       .  A
H1429      C1452   1.080       .  S
H1430      C1447   1.082       .  S
N1432     Co1446   2.120       .  S
N1433      N1445   1.321       .  A
N1433      N1449   1.316       .  A
N1433     Co1442   2.051       .  S
C1434      N1438   1.355       .  A
C1434      C1448   1.464       .  S
C1434      C1468   1.500       .  S
C1435      C1454   1.452       .  S
C1435      H1439   1.081       .  S
N1436      C1447   1.335       .  A
C1440      N1456   1.354       .  A
C1440      C1452   1.464       .  S
C1440      C1461   1.495       .  S
N1443      C1454   1.338       .  A
C1444      C1581   1.453       .  S
Co1446    Cl1453   2.434   1_565  S
C1454      C1641   1.442       .  S
C1457      H1464   1.083       .  S
C1457      C1458   1.405       .  A
C1457      C1462   1.407       .  A
C1458      C1459   1.413       .  A
C1459      C1460   1.396       .  A
C1459     Br1466   1.923       .  S
C1460      H1465   1.081       .  S
C1460      C1461   1.406       .  A
C1461      C1462   1.417       .  A
C1462     Br1463   1.920       .  S
C1467      H1474   1.084       .  S
C1467      C1468   1.402       .  A
C1467      C1472   1.412       .  A
C1468      C1469   1.411       .  A
C1469      C1470   1.414       .  A
C1469     Br1476   1.917       .  S
C1470      H1475   1.083       .  S
C1470      C1471   1.411       .  A
C1471      C1472   1.425       .  A
C1472     Br1473   1.917       .  S
C1477      H1484   1.084       .  S
C1477      C1478   1.409       .  A
C1477      C1482   1.404       .  A
C1478      C1479   1.418       .  A
C1479      C1480   1.406       .  A
C1479     Br1486   1.916       .  S
C1480      H1485   1.084       .  S
C1480      C1481   1.406       .  A
C1481      C1482   1.413       .  A
C1482     Br1483   1.919       .  S
C1487      H1494   1.084       .  S
C1487      C1488   1.395       .  A
C1487      C1492   1.400       .  A
C1488      C1489   1.413       .  A
C1489      C1490   1.414       .  A
C1489     Br1496   1.916       .  S
C1490      H1495   1.083       .  S
C1490      C1491   1.408       .  A
C1491      C1492   1.426       .  A
C1492     Br1493   1.925       .  S
C1497      H1504   1.084       .  S
C1497      C1498   1.397       .  A
C1497      C1502   1.400       .  A
C1498      C1499   1.411       .  A
C1499      C1500   1.402       .  A
C1499     Br1506   1.920       .  S
C1500      H1505   1.084       .  S
C1500      C1501   1.402       .  A
C1501      C1502   1.416       .  A
C1502     Br1503   1.914       .  S
C1507      H1514   1.083       .  S
C1507      C1508   1.410       .  A
C1507      C1512   1.411       .  A
C1508      C1509   1.405       .  A
C1509      C1510   1.406       .  A
C1509     Br1516   1.915       .  S
C1510      H1515   1.084       .  S
C1510      C1511   1.410       .  A
C1511      C1512   1.409       .  A
C1512     Br1513   1.916       .  S
C1517      H1524   1.084       .  S
C1517      C1518   1.408       .  A
C1517      C1522   1.401       .  A
C1518      C1519   1.413       .  A
C1519      C1520   1.400       .  A
C1520      H1525   1.084       .  S
C1520      C1521   1.406       .  A
C1521      C1522   1.401       .  A
C1522     Br1523   1.913       .  S
C1527      H1534   1.083       .  S
C1527      C1528   1.412       .  A
C1527      C1532   1.409       .  A
C1528      C1529   1.402       .  A
C1529      C1530   1.400       .  A
C1529     Br1536   1.911       .  S
C1530      H1535   1.084       .  S
C1530      C1531   1.409       .  A
C1531      C1532   1.412       .  A
C1532     Br1533   1.918       .  S
C1537      H1544   1.083       .  S
C1537      C1542   1.416       .  A
C1538      C1539   1.413       .  A
C1539     Br1546   1.921       .  S
C1540      C1541   1.403       .  A
C1541      C1542   1.413       .  A
C1542     Br1543   1.916       .  S
C1547      H1554   1.084       .  S
C1547      C1552   1.405       .  A
C1548      C1549   1.410       .  A
C1549     Br1556   1.914       .  S
C1550      H1555   1.083       .  S
C1550      C1551   1.411   1_545  A
C1551      C1552   1.412       .  A
C1552     Br1553   1.921       .  S
C1557      H1564   1.083       .  S
C1557      C1558   1.409       .  A
C1557      C1562   1.411       .  A
C1558      C1559   1.409       .  A
C1559      C1560   1.395       .  A
C1559     Br1566   1.921       .  S
C1560      H1565   1.081       .  S
C1560      C1561   1.402       .  A
C1561      C1562   1.409       .  A
C1562     Br1563   1.916       .  S
C1567      H1574   1.083       .  S
C1567      C1568   1.403       .  A
C1567      C1572   1.406       .  A
C1568      C1569   1.412       .  A
C1569      C1570   1.409       .  A
C1569     Br1576   1.918       .  S
C1570      H1575   1.081       .  S
C1570      C1571   1.406       .  A
C1571      C1572   1.413       .  A
C1572     Br3229   1.919       .  S
Br1573     C3228   1.919       .  S
C1577      H1584   1.077       .  S
C1577      C1578   1.433       .  A
C1577      C1582   1.381       .  A
C1578      C1579   1.421       .  A
C1579      C1580   1.397       .  A
C1579     Br1586   1.903       .  S
C1580      H1585   1.084       .  S
C1580      C1581   1.400       .  A
C1581      C1582   1.390       .  A
C1582     Br1583   1.922       .  S
C1587      H1594   1.083       .  S
C1587      C1588   1.412       .  A
C1587      C1592   1.391       .  A
C1588      C1589   1.452       .  A
C1589      C1590   1.388       .  A
C1589     Br1596   1.940       .  S
C1590      H1595   1.084       .  S
C1590      C1591   1.381       .  A
C1591      C1592   1.401       .  A
C1592     Br1593   1.916   1_455  S
C1597      H1604   1.085       .  S
C1597      C1598   1.387       .  A
C1597      C1602   1.377       .  A
C1598      C1599   1.419       .  A
C1599      C1600   1.373       .  A
C1600      H1605   1.074       .  S
C1600      C1601   1.399       .  A
C1601      C1602   1.430       .  A
C1602     Br1603   1.923       .  S
C1607      H1614   1.067       .  S
C1607      C1608   1.430       .  A
C1607      C1612   1.375       .  A
C1608      C1609   1.430       .  A
C1609      C1610   1.390       .  A
C1609     Br1616   1.917       .  S
C1610      H1615   1.085       .  S
C1610      C1611   1.392       .  A
C1611      C1612   1.377       .  A
C1612     Br1613   1.925       .  S
C1617      H1624   1.079       .  S
C1617      C1618   1.418       .  A
C1617      C1622   1.388       .  A
C1618      C1619   1.413       .  A
C1619      C1620   1.400       .  A
C1619     Br1626   1.915       .  S
C1620      H1625   1.083       .  S
C1620      C1621   1.400       .  A
C1621      C1622   1.403       .  A
C1622     Br1623   1.919       .  S
C1627      H1634   1.084       .  S
C1627      C1628   1.387       .  A
C1627      C1632   1.392       .  A
C1628      C1629   1.396       .  A
C1629      C1630   1.391       .  A
C1629     Br1636   1.917       .  S
C1630      H1635   1.075       .  S
C1630      C1631   1.419       .  A
C1631      C1632   1.444       .  A
C1632     Br1633   1.930       .  S
C1637      H1644   1.064       .  S
C1637      C1638   1.400       .  A
C1637      C1642   1.383       .  A
C1638      C1639   1.428       .  A
C1639      C1640   1.388       .  A
C1639     Br1646   1.918       .  S
C1640      H1645   1.084       .  S
C1640      C1641   1.392       .  A
C1641      C1642   1.400       .  A
C1642     Br1643   1.920       .  S
C1647      H1654   1.079       .  S
C1647      C1648   1.424       .  A
C1647      C1652   1.380       .  A
C1648      C1649   1.421       .  A
C1649      C1650   1.398       .  A
C1649     Br1656   1.926       .  S
C1650      H1655   1.083       .  S
C1650      C1651   1.404       .  A
C1651      C1652   1.395       .  A
C1652     Br1653   1.924       .  S
C1657      C2032   1.572       .  S
C1657      C2045   1.561       .  S
C1657      C2052   1.546       .  S
C1657      C2062   1.547       .  S
C1658      C1992   1.578       .  S
C1658      C2002   1.541       .  S
C1658      C2015   1.514       .  S
C1658      C2022   1.573       .  S
C1659      N1677   1.362       .  A
C1659      C1696   1.447       .  S
C1659      C1942   1.487       .  S
N1660      N1677   1.334       .  A
N1660      N1682   1.318       .  A
N1660     Co2525   2.134       .  S
C1661      N1686   1.324       .  A
C1661      C1699   1.445       .  S
H1662      C1703   1.082       .  S
C1663      N1687   1.353       .  A
C1663      C1667   1.474       .  S
C1663      H1692   1.081       .  S
Co1664     N1682   2.039       .  S
Co1664     N2086   2.102       .  S
Co1664     N2532   2.134       .  S
Co1664     N2922   2.042       .  S
N1665      C1703   1.339       .  A
N1665     Co1666   2.090       .  S
Co1666     N1669   2.070       .  S
Co1666     N2501   2.124       .  S
Co1666    Cl2950   2.458   1_554  S
C1667      N2119   1.351       .  A
C1667      C2379   1.500       .  S
N1668      N1675   1.327       .  A
N1668      N1698   1.320       .  A
N1668     Co2529   2.043       .  S
N1669      N2101   1.318   1_554  A
N1669      N1705   1.325       .  A
N1670      C1699   1.340       .  A
N1670      N1680   1.318       .  A
H1671      C1696   1.082       .  S
N1672      N1693   1.329       .  A
N1672     Co2078   2.102   1_554  S
N1673      N2105   1.320   1_554  A
N1673      N1678   1.330       .  A
N1673     Co2494   2.124       .  S
C1674      N1678   1.358       .  A
C1674      C2116   1.452   1_554  S
C1674      C1935   1.476       .  S
N1675      C1690   1.334       .  A
C1676      N1704   1.351       .  A
C1676      C1679   1.473       .  S
C1676      H1710   1.081   1_545  S
C1679      N1700   1.353       .  A
C1679      C1955   1.497       .  S
N1680      N1686   1.319       .  A
N1680     Co2906   2.042   1_544  S
N1681      C1707   1.349       .  A
N1681      N1683   1.321       .  A
N1682      C1696   1.332       .  A
N1683      N1711   1.329       .  A
N1683     Co1701   2.091       .  S
H1684      C1707   1.081   1_455  S
H1685      C1702   1.082       .  S
N1687      N2083   1.318       .  A
N1687     Co2529   2.126       .  S
N1688      N1700   1.326       .  A
N1688      N1704   1.323       .  A
N1688     Co1697   2.086   1_545  S
C1689      N1693   1.352       .  A
C1689      C1972   1.485       .  S
C1690      C1709   1.460       .  S
C1690      H1694   1.081       .  S
N1691      C1702   1.329       .  A
N1691      N2087   1.320       .  A
N1691     Co1701   2.048       .  S
C1695      N1711   1.350       .  A
C1695      C1707   1.466       .  S
C1695      C1982   1.491       .  S
Co1697     N2488   2.134       .  S
N1698      C1709   1.334       .  A
C1699      C2025   1.429       .  S
Co1701     N2496   2.043   1_545  S
Co1701     N2515   2.126       .  S
Co1701    Cl1708   2.453       .  S
C1702      C2088   1.452       .  S
N1704     Co2492   2.134   1_545  S
N1705      C2081   1.351       .  A
Cl1708    Co2908   2.458       .  S
C1709      C2035   1.461       .  S
C1712      N1730   1.352       .  A
C1712      C1749   1.456       .  S
C1712      C1922   1.493       .  S
N1713      N2144   1.331       .  A
N1713      N1735   1.323       .  A
N1713     Co1750   2.107       .  S
C1714      N1739   1.329       .  A
C1714      C1752   1.449       .  S
C1714      H1759   1.082       .  S
H1715      C1756   1.080       .  S
C1716      N2154   1.327       .  A
C1716      C1720   1.451       .  S
C1716      H1745   1.082       .  S
Co1717     N1735   2.105       .  S
Co1717     N2139   2.097       .  S
Co1717     N1757   2.077       .  S
Co1717     N1733   2.125       .  S
Co1717    Cl1761   2.462       .  S
N1718      C1756   1.345       .  A
N1718      N1725   1.316       .  A
N1718     Co2133   2.094   1_554  S
Co1719     N2132   2.094       .  S
Co1719     N2136   2.024       .  S
Co1719     N1739   2.051       .  S
Co1719     N1726   2.082       .  S
Co1719    Cl1761   2.424       .  S
C1720      N1758   1.339       .  A
C1720      C2012   1.435       .  S
N1721      N1728   1.315       .  A
N1721      N1751   1.328       .  A
N1721     Co1754   2.091       .  S
N1722      N2154   1.312       .  A
N1722      N1758   1.308       .  A
N1722     Co2133   2.024   1_554  S
N1723      C1752   1.365       .  A
N1723      N1733   1.336       .  A
H1724      C1749   1.078       .  S
N1725      N1746   1.326       .  A
N1725     Co2131   2.097   1_554  S
N1726      N1744   1.320       .  A
N1726      N1731   1.327       .  A
C1727      N1731   1.348       .  A
C1727      C1755   1.459       .  S
C1727      C1915   1.484       .  S
N1728      C1743   1.336       .  A
N1728     Co1750   2.071       .  S
C1729      N1757   1.335       .  A
C1729      C1732   1.466       .  S
C1729      H1763   1.081       .  S
N1730      N2127   1.331   1_554  A
C1732      N1753   1.345       .  A
C1732      C2042   1.465       .  S
N1733      N1739   1.315       .  A
N1734      C1760   1.362       .  A
N1734      N1736   1.315       .  A
N1734     Co1750   2.144       .  S
N1735      C2163   1.346       .  A
N1736      N1764   1.316       .  A
N1736     Co1754   2.049       .  S
H1737      C1760   1.081       .  S
H1738      C1755   1.079       .  S
N1740      C2130   1.327       .  A
N1740      N2136   1.312       .  A
N1740     Co1754   2.030       .  S
N1741      N1753   1.318       .  A
N1741      N1757   1.320       .  A
N1741     Co1750   2.051       .  S
C1742      N1746   1.353       .  A
C1742      C1756   1.468       .  S
C1742      C1895   1.495       .  S
C1743      C2176   1.458       .  S
C1743      H1747   1.082       .  S
N1744      C1755   1.344       .  A
N1744     Co1754   2.103       .  S
C1748      N1764   1.338       .  A
C1748      C1760   1.489       .  S
C1748      C1905   1.504       .  S
C1749      N2149   1.346   1_554  A
Co1750    Cl1761   2.441       .  S
N1751      C2176   1.355       .  A
C1752      C1945   1.493       .  S
Co1754    Cl1761   2.441       .  S
C1762      N2165   1.355       .  A
C1762      C2157   1.458       .  S
C1762      C1932   1.483       .  S
C1765      N1783   1.343       .  A
C1765      C1802   1.464       .  S
C1765      C1912   1.475       .  S
N1766      N1783   1.322       .  A
N1766      N1788   1.324       .  A
N1766     Co1803   2.073       .  S
C1767      N1792   1.335       .  A
C1767      H1812   1.082       .  S
H1768      C1809   1.080       .  S
C1769      N1793   1.336       .  A
C1769      C1773   1.448       .  S
C1769      H1798   1.079       .  S
Co1770     N1788   2.110       .  S
Co1770     N1778   2.108       .  S
Co1770     N1810   2.095       .  S
Co1770     N1786   2.105       .  S
N1771      C1809   1.346       .  A
N1771      N1778   1.318       .  A
Co1772     N1775   2.060       .  S
Co1772     N1792   2.074       .  S
Co1772     N1779   2.076       .  S
Co1772    Cl1814   2.429       .  S
C1773      N1811   1.345       .  A
C1773      C2065   1.461       .  S
N1774      N1781   1.316       .  A
N1774      N1804   1.334       .  A
N1774     Co1807   2.143       .  S
N1775      N1793   1.323       .  A
N1775      N1811   1.318       .  A
N1776      C1805   1.358       .  A
N1776      N1786   1.331       .  A
H1777      C1802   1.081       .  S
N1778      N1799   1.333       .  A
N1779      N1797   1.322       .  A
N1779      N1784   1.323       .  A
C1780      N1784   1.343       .  A
C1780      C1808   1.476       .  S
C1780      C1925   1.494       .  S
C1782      N1810   1.342       .  A
C1782      C1785   1.468       .  S
C1782      H1816   1.080       .  S
C1785      N1806   1.332       .  A
C1785      C2005   1.461       .  S
N1787      C1813   1.344       .  A
N1787      N1789   1.316       .  A
N1788      C1802   1.348       .  A
N1789      N1817   1.323       .  A
N1789     Co1807   2.062       .  S
H1790      C1813   1.081       .  S
H1791      C1808   1.081       .  S
N1793     Co1807   2.062       .  S
N1794      N1806   1.315       .  A
N1794      N1810   1.321       .  A
N1794     Co1803   2.016       .  S
C1795      N1799   1.360       .  A
C1795      C1809   1.473       .  S
C1795      C1885   1.516       .  S
C1796      H1800   1.082       .  S
N1797      C1808   1.356       .  A
N1797     Co1807   2.126       .  S
C1801      N1817   1.350       .  A
C1801      C1813   1.463       .  S
C1801      C1872   1.486       .  S
N1804      C1815   1.363       .  A
C1805      C1975   1.483       .  S
Co1807    Cl1814   2.465       .  S
C1815      C1985   1.493       .  S
C1818      N1836   1.368       .  A
C1818      C1855   1.446       .  S
C1818      C1952   1.495       .  S
N1819      N1836   1.338       .  A
N1819      N1841   1.318       .  A
N1819     Co2684   2.150       .  S
C1820      N1845   1.338       .  A
C1820      C1858   1.465       .  S
C1820      H1865   1.081       .  S
H1821      C1862   1.081       .  S
C1822      N1846   1.348       .  A
C1822      C1826   1.479       .  S
C1822      H1851   1.079       .  S
Co1823     N2669   2.048       .  S
Co1823     N2659   2.111   1_545  S
Co1823     N1863   2.142       .  S
Co1823     N1839   2.038       .  S
Co1823    Cl2695   2.446       .  S
N1824      C1862   1.349       .  A
N1824      N1831   1.323       .  A
N1824     Co1825   2.116       .  S
Co1825     N1828   2.076       .  S
Co1825     N2673   2.091       .  S
Co1825     N2660   2.137       .  S
Co1825    Cl1867   2.467       .  S
C1826      N1864   1.351       .  A
C1826      C1892   1.501       .  S
N1827      N1834   1.323       .  A
N1827      N1857   1.317       .  A
N1827     Co1860   2.049       .  S
N1828      N1846   1.319       .  A
N1828      N1864   1.322       .  A
N1829      C1858   1.336       .  A
N1829      N1839   1.316       .  A
H1830      C1855   1.082       .  S
N1831      N1852   1.333       .  A
N1831     Co2651   2.111       .  S
N1832      N1850   1.318       .  A
N1832      N1837   1.337       .  A
N1832     Co2653   2.137       .  S
C1833      N1837   1.366       .  A
C1833      C1861   1.453       .  S
C1833      C1962   1.499       .  S
N1834      C1849   1.329       .  A
N1834     Co2684   2.053       .  S
C1835      N1863   1.355       .  A
C1835      C1838   1.484       .  S
C1835      H1869   1.081       .  S
C1838      N1859   1.343       .  A
C1838      C1902   1.487       .  S
N1839      N1845   1.322       .  A
N1840      C1866   1.339       .  A
N1840      N1842   1.320       .  A
N1840     Co1856   2.095       .  S
N1841      C1855   1.332       .  A
N1841     Co2651   2.048       .  S
N1842      N1870   1.328       .  A
N1842     Co2688   2.093   1_545  S
H1843      C1866   1.080       .  S
H1844      C1861   1.082       .  S
N1845     Co2653   2.091       .  S
N1846     Co1860   2.120       .  S
N1847      N1859   1.321       .  A
N1847      N1863   1.316       .  A
N1847     Co1856   2.051       .  S
C1848      N1852   1.355       .  A
C1848      C1862   1.464       .  S
C1848      C1882   1.500       .  S
C1849      C1868   1.452       .  S
C1849      H1853   1.081       .  S
N1850      C1861   1.335       .  A
N1850     Co2688   2.059   1_545  S
C1854      N1870   1.354       .  A
C1854      C1866   1.464       .  S
C1854      C1875   1.495       .  S
Co1856     N2647   2.150       .  S
Co1856     N2662   2.053   1_545  S
Co1856    Cl2695   2.460       .  S
N1857      C1868   1.338       .  A
C1858      C1995   1.453       .  S
Co1860     N2670   2.093       .  S
Co1860     N2678   2.059       .  S
Co1860    Cl1867   2.434       .  S
Cl1867    Co2651   2.446       .  S
Cl1867    Co2684   2.460       .  S
C1868      C2055   1.442       .  S
C1871      H1878   1.083       .  S
C1871      C1872   1.405       .  A
C1871      C1876   1.407       .  A
C1872      C1873   1.413       .  A
C1873      C1874   1.396       .  A
C1873     Br1880   1.923       .  S
C1874      H1879   1.081       .  S
C1874      C1875   1.406       .  A
C1875      C1876   1.417       .  A
C1876     Br1877   1.920       .  S
C1881      H1888   1.084       .  S
C1881      C1882   1.402       .  A
C1881      C1886   1.412       .  A
C1882      C1883   1.411       .  A
C1883      C1884   1.414       .  A
C1883     Br1890   1.917       .  S
C1884      H1889   1.083       .  S
C1884      C1885   1.411       .  A
C1885      C1886   1.425       .  A
C1886     Br1887   1.917       .  S
C1891      H1898   1.084       .  S
C1891      C1892   1.409       .  A
C1891      C1896   1.404       .  A
C1892      C1893   1.418       .  A
C1893      C1894   1.406       .  A
C1893     Br1900   1.916       .  S
C1894      H1899   1.084       .  S
C1894      C1895   1.406       .  A
C1895      C1896   1.413       .  A
C1896     Br1897   1.919       .  S
C1901      H1908   1.084       .  S
C1901      C1902   1.395       .  A
C1901      C1906   1.400       .  A
C1902      C1903   1.413       .  A
C1903      C1904   1.414       .  A
C1903     Br1910   1.916       .  S
C1904      H1909   1.083       .  S
C1904      C1905   1.408       .  A
C1905      C1906   1.426       .  A
C1906     Br1907   1.925       .  S
C1911      H1918   1.084       .  S
C1911      C1912   1.397       .  A
C1911      C1916   1.400       .  A
C1912      C1913   1.411       .  A
C1913      C1914   1.402       .  A
C1913     Br1920   1.920       .  S
C1914      H1919   1.084       .  S
C1914      C1915   1.402       .  A
C1915      C1916   1.416       .  A
C1916     Br1917   1.914       .  S
C1921      H1928   1.083       .  S
C1921      C1922   1.410       .  A
C1921      C1926   1.411       .  A
C1922      C1923   1.405       .  A
C1923      C1924   1.406       .  A
C1923     Br1930   1.915       .  S
C1924      H1929   1.084       .  S
C1924      C1925   1.410       .  A
C1925      C1926   1.409       .  A
C1926     Br1927   1.916       .  S
C1931      H1938   1.084       .  S
C1931      C1932   1.408       .  A
C1931      C1936   1.401       .  A
C1932      C1933   1.413       .  A
C1933      C1934   1.400       .  A
C1933     Br2354   1.921       .  S
C1934      H1939   1.084       .  S
C1934      C1935   1.406       .  A
C1935      C1936   1.401       .  A
C1936     Br1937   1.913       .  S
Br1940     C2347   1.921       .  S
C1941      H1948   1.083       .  S
C1941      C1942   1.412       .  A
C1941      C1946   1.409       .  A
C1942      C1943   1.402       .  A
C1943      C1944   1.400       .  A
C1943     Br1950   1.911       .  S
C1944      H1949   1.084       .  S
C1944      C1945   1.409       .  A
C1945      C1946   1.412       .  A
C1946     Br1947   1.918       .  S
C1951      H1958   1.083       .  S
C1951      C2780   1.410   1_545  A
C1951      C1956   1.416       .  A
C1952      C2779   1.410       .  A
C1952      C1953   1.413       .  A
C1953      C2782   1.403       .  A
C1953     Br1960   1.921       .  S
C1954      H2787   1.083       .  S
C1954      C2781   1.403       .  A
C1954      C1955   1.403   1_565  A
C1955      C1956   1.413       .  A
C1956     Br1957   1.916       .  S
H1959      C2782   1.083       .  S
C1961      H1968   1.084       .  S
C1961      C2790   1.408       .  A
C1961      C1966   1.405       .  A
C1962      C2789   1.408   1_545  A
C1962      C1963   1.410       .  A
C1963      C2792   1.416       .  A
C1963     Br1970   1.914       .  S
C1964      H1969   1.083       .  S
C1964      C2791   1.416       .  A
C1964      C1965   1.411       .  A
C1965      C2081   1.500       .  S
C1965      C1966   1.412       .  A
C1966     Br1967   1.921       .  S
C1971      H1978   1.083       .  S
C1971      C1972   1.409       .  A
C1971      C1976   1.411       .  A
C1972      C1973   1.409       .  A
C1973      C1974   1.395       .  A
C1973     Br1980   1.921       .  S
C1974      H1979   1.081       .  S
C1974      C1975   1.402       .  A
C1975      C1976   1.409       .  A
C1976     Br1977   1.916       .  S
C1981      H1988   1.083       .  S
C1981      C1982   1.403   1_455  A
C1981      C1986   1.406       .  A
C1982      C1983   1.412       .  A
C1983      C1984   1.409       .  A
C1983     Br1990   1.918       .  S
C1984      H1989   1.081       .  S
C1984      C1985   1.406       .  A
C1985      C1986   1.413   1_655  A
C1991      H1998   1.077       .  S
C1991      C1992   1.433       .  A
C1991      C1996   1.381       .  A
C1992      C1993   1.421       .  A
C1993      C1994   1.397       .  A
C1993     Br2000   1.903       .  S
C1994      H1999   1.084       .  S
C1994      C1995   1.400       .  A
C1995      C1996   1.390       .  A
C1996     Br1997   1.922       .  S
C2001      H2008   1.083       .  S
C2001      C2002   1.412       .  A
C2001      C2006   1.391       .  A
C2002      C2003   1.452       .  A
C2003      C2004   1.388       .  A
C2003     Br2010   1.940       .  S
C2004      H2009   1.084       .  S
C2004      C2005   1.381       .  A
C2005      C2006   1.401       .  A
C2006     Br2007   1.916       .  S
C2011      H2018   1.085       .  S
C2011      C2012   1.387       .  A
C2011      C2016   1.377       .  A
C2012      C2013   1.419       .  A
C2013      C2014   1.373       .  A
C2013     Br2434   1.929       .  S
C2014      H2019   1.074       .  S
C2014      C2015   1.399       .  A
C2015      C2016   1.430       .  A
C2016     Br2017   1.923       .  S
Br2020     C2427   1.929       .  S
C2021      H2028   1.067       .  S
C2021      C2022   1.430       .  A
C2021      C2026   1.375       .  A
C2022      C2023   1.430       .  A
C2023      C2024   1.390       .  A
C2023     Br2030   1.917       .  S
C2024      H2029   1.085       .  S
C2024      C2025   1.392       .  A
C2025      C2026   1.377       .  A
C2026     Br2027   1.925       .  S
C2031      H2038   1.079       .  S
C2031      C2032   1.418       .  A
C2031      C2036   1.388       .  A
C2032      C2033   1.413       .  A
C2033      C2034   1.400       .  A
C2033     Br2040   1.915       .  S
C2034      H2039   1.083       .  S
C2034      C2035   1.400       .  A
C2035      C2036   1.403       .  A
C2036     Br2037   1.919       .  S
C2041      H2048   1.084       .  S
C2041      C2042   1.387       .  A
C2041      C2046   1.392       .  A
C2042      C2043   1.396       .  A
C2043      C2044   1.391       .  A
C2043     Br2050   1.917       .  S
C2044      H2049   1.075       .  S
C2044      C2045   1.419       .  A
C2045      C2046   1.444       .  A
C2046     Br2047   1.930       .  S
C2051      H2058   1.064       .  S
C2051      C2052   1.400       .  A
C2051      C2056   1.383       .  A
C2052      C2053   1.428       .  A
C2053      C2054   1.388       .  A
C2053     Br2060   1.918       .  S
C2054      H2059   1.084       .  S
C2054      C2055   1.392       .  A
C2055      C2056   1.400       .  A
C2056     Br2057   1.920       .  S
C2061      H2068   1.079       .  S
C2061      C2062   1.424       .  A
C2061      C2066   1.380       .  A
C2062      C2063   1.421       .  A
C2063      C2064   1.398       .  A
C2063     Br2070   1.926       .  S
C2064      H2069   1.083       .  S
C2064      C2065   1.404       .  A
C2065      C2066   1.395       .  A
C2066     Br2067   1.924   1_655  S
C2071      C2446   1.572       .  S
C2071      C2459   1.561       .  S
C2071      C2466   1.546       .  S
C2071      C2476   1.547       .  S
C2072      C2406   1.578       .  S
C2072      C2416   1.541       .  S
C2072      C2429   1.514       .  S
C2072      C2436   1.573       .  S
C2073      N2091   1.362       .  A
C2073      C2110   1.447       .  S
C2073      C2356   1.487       .  S
N2074      N2091   1.334       .  A
N2074      N2096   1.318       .  A
N2074     Co2939   2.134       .  S
C2075      N2100   1.324       .  A
C2075      C2113   1.445       .  S
H2076      C2117   1.082       .  S
C2077      N2101   1.353       .  A
C2077      C2081   1.474   1_556  S
C2077      H2106   1.081       .  S
Co2078     N2096   2.039       .  S
Co2078     N2946   2.134       .  S
Co2078     N2508   2.042   1_556  S
N2079      C2117   1.339       .  A
N2079     Co2080   2.090       .  S
Co2080     N2083   2.070       .  S
Co2080     N2915   2.124       .  S
Co2080    Cl2536   2.458       .  S
N2082      N2089   1.327       .  A
N2082      N2112   1.320       .  A
N2082     Co2943   2.043       .  S
N2083      N2119   1.325       .  A
N2084      C2113   1.340       .  A
N2084      N2094   1.318       .  A
H2085      C2110   1.082       .  S
N2086      N2107   1.329       .  A
N2087      N2092   1.330       .  A
N2087     Co2908   2.124       .  S
C2088      N2092   1.358       .  A
C2088      C2349   1.476       .  S
N2089      C2104   1.334       .  A
C2090      N2118   1.351       .  A
C2090      C2093   1.473       .  S
C2090      H2124   1.081   1_545  S
C2093      N2114   1.353       .  A
C2093      C2369   1.497       .  S
N2094      N2100   1.319       .  A
N2094     Co2492   2.042   1_545  S
N2095      C2121   1.349       .  A
N2095      N2097   1.321       .  A
N2096      C2110   1.332       .  A
N2097      N2125   1.329       .  A
N2097     Co2115   2.091       .  S
H2098      C2121   1.081   1_455  S
H2099      C2116   1.082       .  S
N2101     Co2943   2.126       .  S
N2102      N2114   1.326       .  A
N2102      N2118   1.323       .  A
N2102     Co2111   2.086   1_545  S
C2103      N2107   1.352       .  A
C2103      C2386   1.485       .  S
C2104      C2123   1.460       .  S
C2104      H2108   1.081       .  S
N2105      C2116   1.329       .  A
N2105     Co2115   2.048       .  S
C2109      N2125   1.350       .  A
C2109      C2121   1.466       .  S
C2109      C2396   1.491       .  S
Co2111     N2902   2.134       .  S
N2112      C2123   1.334       .  A
C2113      C2439   1.429       .  S
Co2115     N2910   2.043   1_545  S
Co2115     N2929   2.126       .  S
Co2115    Cl2122   2.453       .  S
N2118     Co2906   2.134   1_545  S
Cl2122    Co2494   2.458   1_556  S
C2123      C2449   1.461       .  S
C2126      N2144   1.352       .  A
C2126      C2163   1.456       .  S
C2126      C2336   1.493       .  S
N2127      N2149   1.323       .  A
N2127     Co2164   2.107       .  S
C2128      N2153   1.329       .  A
C2128      C2166   1.449       .  S
C2128      H2173   1.082       .  S
H2129      C2170   1.080       .  S
C2130      C2134   1.451       .  S
C2130      H2159   1.082       .  S
Co2131     N2149   2.105       .  S
Co2131     N2171   2.077       .  S
Co2131     N2147   2.125       .  S
Co2131    Cl2175   2.462       .  S
N2132      C2170   1.345       .  A
N2132      N2139   1.316       .  A
Co2133     N2153   2.051       .  S
Co2133     N2140   2.082       .  S
Co2133    Cl2175   2.424       .  S
C2134      N2172   1.339       .  A
C2134      C2426   1.435       .  S
N2135      N2142   1.315       .  A
N2135      N2165   1.328   1_556  A
N2135     Co2168   2.091       .  S
N2136      N2172   1.308       .  A
N2137      C2166   1.365       .  A
N2137      N2147   1.336       .  A
H2138      C2163   1.078       .  S
N2139      N2160   1.326       .  A
N2140      N2158   1.320       .  A
N2140      N2145   1.327       .  A
C2141      N2145   1.348       .  A
C2141      C2169   1.459       .  S
C2141      C2329   1.484       .  S
N2142      C2157   1.336   1_556  A
N2142     Co2164   2.071       .  S
C2143      N2171   1.335       .  A
C2143      C2146   1.466       .  S
C2143      H2177   1.081       .  S
C2146      N2167   1.345       .  A
C2146      C2456   1.465       .  S
N2147      N2153   1.315       .  A
N2148      C2174   1.362       .  A
N2148      N2150   1.315       .  A
N2148     Co2164   2.144       .  S
N2150      N2178   1.316       .  A
N2150     Co2168   2.049       .  S
H2151      C2174   1.081       .  S
H2152      C2169   1.079       .  S
N2154     Co2168   2.030   1_554  S
N2155      N2167   1.318       .  A
N2155      N2171   1.320       .  A
N2155     Co2164   2.051       .  S
C2156      N2160   1.353       .  A
C2156      C2170   1.468       .  S
C2156      C2309   1.495       .  S
C2157      H2161   1.082       .  S
N2158      C2169   1.344       .  A
N2158     Co2168   2.103       .  S
C2162      N2178   1.338       .  A
C2162      C2174   1.489       .  S
C2162      C2319   1.504       .  S
Co2164    Cl2175   2.441       .  S
C2166      C2359   1.493       .  S
Co2168    Cl2175   2.441       .  S
C2176      C2346   1.483       .  S
C2179      N2197   1.343       .  A
C2179      C2216   1.464       .  S
C2179      C2326   1.475       .  S
N2180      N2197   1.322       .  A
N2180      N2202   1.324       .  A
N2180     Co2217   2.073       .  S
C2181      N2206   1.335       .  A
C2181      H2226   1.082       .  S
H2182      C2223   1.080       .  S
C2183      N2207   1.336       .  A
C2183      C2187   1.448       .  S
C2183      H2212   1.079       .  S
Co2184     N2202   2.110       .  S
Co2184     N2192   2.108       .  S
Co2184     N2224   2.095       .  S
Co2184     N2200   2.105       .  S
N2185      C2223   1.346       .  A
N2185      N2192   1.318       .  A
Co2186     N2189   2.060       .  S
Co2186     N2206   2.074       .  S
Co2186     N2193   2.076       .  S
Co2186    Cl2228   2.429       .  S
C2187      N2225   1.345       .  A
C2187      C2479   1.461       .  S
N2188      N2195   1.316       .  A
N2188      N2218   1.334       .  A
N2188     Co2221   2.143       .  S
N2189      N2207   1.323       .  A
N2189      N2225   1.318       .  A
N2190      C2219   1.358       .  A
N2190      N2200   1.331       .  A
H2191      C2216   1.081       .  S
N2192      N2213   1.333       .  A
N2193      N2211   1.322       .  A
N2193      N2198   1.323       .  A
C2194      N2198   1.343       .  A
C2194      C2222   1.476       .  S
C2194      C2339   1.494       .  S
C2196      N2224   1.342       .  A
C2196      C2199   1.468       .  S
C2196      H2230   1.080       .  S
C2199      N2220   1.332       .  A
C2199      C2419   1.461       .  S
N2201      C2227   1.344       .  A
N2201      N2203   1.316       .  A
N2202      C2216   1.348       .  A
N2203      N2231   1.323       .  A
N2203     Co2221   2.062       .  S
H2204      C2227   1.081       .  S
H2205      C2222   1.081       .  S
N2207     Co2221   2.062       .  S
N2208      N2220   1.315       .  A
N2208      N2224   1.321       .  A
N2208     Co2217   2.016       .  S
C2209      N2213   1.360       .  A
C2209      C2223   1.473       .  S
C2209      C2299   1.516       .  S
C2210      H2214   1.082       .  S
N2211      C2222   1.356       .  A
N2211     Co2221   2.126       .  S
C2215      N2231   1.350       .  A
C2215      C2227   1.463       .  S
C2215      C2286   1.486       .  S
N2218      C2229   1.363       .  A
C2219      C2389   1.483       .  S
Co2221    Cl2228   2.465       .  S
C2229      C2399   1.493       .  S
C2232      N2250   1.368       .  A
C2232      C2269   1.446       .  S
C2232      C2366   1.495       .  S
N2233      N2250   1.338       .  A
N2233      N2255   1.318       .  A
N2233     Co3098   2.150       .  S
C2234      N2259   1.338       .  A
C2234      C2272   1.465       .  S
C2234      H2279   1.081       .  S
H2235      C2276   1.081       .  S
C2236      N2260   1.348       .  A
C2236      C2240   1.479       .  S
C2236      H2265   1.079       .  S
Co2237     N3083   2.048       .  S
Co2237     N3073   2.111   1_545  S
Co2237     N2277   2.142       .  S
Co2237     N2253   2.038       .  S
Co2237    Cl3109   2.446       .  S
N2238      C2276   1.349       .  A
N2238      N2245   1.323       .  A
N2238     Co2239   2.116       .  S
Co2239     N2242   2.076       .  S
Co2239     N3087   2.091       .  S
Co2239     N3074   2.137       .  S
Co2239    Cl2281   2.467       .  S
C2240      N2278   1.351       .  A
C2240      C2306   1.501       .  S
N2241      N2248   1.323       .  A
N2241      N2271   1.317       .  A
N2241     Co2274   2.049       .  S
N2242      N2260   1.319       .  A
N2242      N2278   1.322       .  A
N2243      C2272   1.336       .  A
N2243      N2253   1.316       .  A
H2244      C2269   1.082       .  S
N2245      N2266   1.333       .  A
N2245     Co3065   2.111       .  S
N2246      N2264   1.318       .  A
N2246      N2251   1.337       .  A
N2246     Co3067   2.137       .  S
C2247      N2251   1.366       .  A
C2247      C2275   1.453       .  S
C2247      C2376   1.499       .  S
N2248      C2263   1.329       .  A
N2248     Co3098   2.053       .  S
C2249      N2277   1.355       .  A
C2249      C2252   1.484       .  S
C2249      H2283   1.081       .  S
C2252      N2273   1.343       .  A
C2252      C2316   1.487       .  S
N2253      N2259   1.322       .  A
N2254      C2280   1.339       .  A
N2254      N2256   1.320       .  A
N2254     Co2270   2.095       .  S
N2255      C2269   1.332       .  A
N2255     Co3065   2.048       .  S
N2256      N2284   1.328       .  A
N2256     Co3102   2.093   1_545  S
H2257      C2280   1.080       .  S
H2258      C2275   1.082       .  S
N2259     Co3067   2.091       .  S
N2260     Co2274   2.120       .  S
N2261      N2273   1.321       .  A
N2261      N2277   1.316       .  A
N2261     Co2270   2.051       .  S
C2262      N2266   1.355       .  A
C2262      C2276   1.464       .  S
C2262      C2296   1.500       .  S
C2263      C2282   1.452       .  S
C2263      H2267   1.081       .  S
N2264      C2275   1.335       .  A
N2264     Co3102   2.059   1_545  S
C2268      N2284   1.354       .  A
C2268      C2280   1.464       .  S
C2268      C2289   1.495       .  S
Co2270     N3061   2.150       .  S
Co2270     N3076   2.053   1_545  S
Co2270    Cl3109   2.460       .  S
N2271      C2282   1.338       .  A
C2272      C2409   1.453       .  S
Co2274     N3084   2.093       .  S
Co2274     N3092   2.059       .  S
Co2274    Cl2281   2.434       .  S
Cl2281    Co3065   2.446       .  S
Cl2281    Co3098   2.460       .  S
C2282      C2469   1.442       .  S
C2285      H2292   1.083       .  S
C2285      C2286   1.405       .  A
C2285      C2290   1.407       .  A
C2286      C2287   1.413       .  A
C2287      C2288   1.396       .  A
C2287     Br2294   1.923       .  S
C2288      H2293   1.081       .  S
C2288      C2289   1.406       .  A
C2289      C2290   1.417       .  A
C2290     Br2291   1.920       .  S
C2295      H2302   1.084       .  S
C2295      C2296   1.402       .  A
C2295      C2300   1.412       .  A
C2296      C2297   1.411       .  A
C2297      C2298   1.414       .  A
C2297     Br2304   1.917       .  S
C2298      H2303   1.083       .  S
C2298      C2299   1.411       .  A
C2299      C2300   1.425       .  A
C2300     Br2301   1.917       .  S
C2305      H2312   1.084       .  S
C2305      C2306   1.409       .  A
C2305      C2310   1.404       .  A
C2306      C2307   1.418       .  A
C2307      C2308   1.406       .  A
C2307     Br2314   1.916       .  S
C2308      H2313   1.084       .  S
C2308      C2309   1.406       .  A
C2309      C2310   1.413       .  A
C2310     Br2311   1.919       .  S
C2315      H2322   1.084       .  S
C2315      C2316   1.395       .  A
C2315      C2320   1.400       .  A
C2316      C2317   1.413       .  A
C2317      C2318   1.414       .  A
C2317     Br2324   1.916       .  S
C2318      H2323   1.083       .  S
C2318      C2319   1.408       .  A
C2319      C2320   1.426       .  A
C2320     Br2321   1.925       .  S
C2325      H2332   1.084       .  S
C2325      C2326   1.397       .  A
C2325      C2330   1.400       .  A
C2326      C2327   1.411       .  A
C2327      C2328   1.402       .  A
C2327     Br2334   1.920       .  S
C2328      H2333   1.084       .  S
C2328      C2329   1.402       .  A
C2329      C2330   1.416       .  A
C2330     Br2331   1.914       .  S
C2335      H2342   1.083       .  S
C2335      C2336   1.410       .  A
C2335      C2340   1.411       .  A
C2336      C2337   1.405       .  A
C2337      C2338   1.406       .  A
C2337     Br2344   1.915       .  S
C2338      H2343   1.084       .  S
C2338      C2339   1.410       .  A
C2339      C2340   1.409       .  A
C2340     Br2341   1.916       .  S
C2345      H2352   1.084       .  S
C2345      C2346   1.408       .  A
C2345      C2350   1.401       .  A
C2346      C2347   1.413       .  A
C2347      C2348   1.400       .  A
C2348      H2353   1.084       .  S
C2348      C2349   1.406       .  A
C2349      C2350   1.401       .  A
C2350     Br2351   1.913       .  S
C2355      H2362   1.083       .  S
C2355      C2356   1.412       .  A
C2355      C2360   1.409       .  A
C2356      C2357   1.402       .  A
C2357      C2358   1.400       .  A
C2357     Br2364   1.911       .  S
C2358      H2363   1.084       .  S
C2358      C2359   1.409       .  A
C2359      C2360   1.412       .  A
C2360     Br2361   1.918       .  S
C2365      H2372   1.083       .  S
C2365      C3194   1.410   1_545  A
C2365      C2370   1.416       .  A
C2366      C3193   1.410       .  A
C2366      C2367   1.413       .  A
C2367      C3196   1.403       .  A
C2367     Br2374   1.921       .  S
C2368      H3201   1.083       .  S
C2368      C3195   1.403       .  A
C2368      C2369   1.403   1_565  A
C2369      C2370   1.413       .  A
C2370     Br2371   1.916       .  S
H2373      C3196   1.083       .  S
C2375      H2382   1.084       .  S
C2375      C3204   1.408       .  A
C2375      C2380   1.405       .  A
C2376      C3203   1.408   1_545  A
C2376      C2377   1.410       .  A
C2377      C3206   1.416       .  A
C2377     Br2384   1.914       .  S
C2378      H2383   1.083       .  S
C2378      C3205   1.416       .  A
C2378      C2379   1.411       .  A
C2379      C2380   1.412       .  A
C2380     Br2381   1.921       .  S
C2385      H2392   1.083       .  S
C2385      C2386   1.409       .  A
C2385      C2390   1.411       .  A
C2386      C2387   1.409       .  A
C2387      C2388   1.395       .  A
C2387     Br2394   1.921       .  S
C2388      H2393   1.081       .  S
C2388      C2389   1.402       .  A
C2389      C2390   1.409       .  A
C2390     Br2391   1.916       .  S
C2395      H2402   1.083       .  S
C2395      C2396   1.403   1_455  A
C2395      C2400   1.406       .  A
C2396      C2397   1.412       .  A
C2397      C2398   1.409       .  A
C2397     Br2404   1.918       .  S
C2398      H2403   1.081       .  S
C2398      C2399   1.406       .  A
C2399      C2400   1.413   1_655  A
C2405      H2412   1.077       .  S
C2405      C2406   1.433       .  A
C2405      C2410   1.381       .  A
C2406      C2407   1.421       .  A
C2407      C2408   1.397       .  A
C2407     Br2414   1.903       .  S
C2408      H2413   1.084       .  S
C2408      C2409   1.400       .  A
C2409      C2410   1.390       .  A
C2410     Br2411   1.922       .  S
C2415      H2422   1.083       .  S
C2415      C2416   1.412       .  A
C2415      C2420   1.391       .  A
C2416      C2417   1.452       .  A
C2417      C2418   1.388       .  A
C2417     Br2424   1.940       .  S
C2418      H2423   1.084       .  S
C2418      C2419   1.381       .  A
C2419      C2420   1.401       .  A
C2420     Br2421   1.916       .  S
C2425      H2432   1.085       .  S
C2425      C2426   1.387       .  A
C2425      C2430   1.377       .  A
C2426      C2427   1.419       .  A
C2427      C2428   1.373       .  A
C2428      H2433   1.074       .  S
C2428      C2429   1.399       .  A
C2429      C2430   1.430       .  A
C2430     Br2431   1.923       .  S
C2435      H2442   1.067       .  S
C2435      C2436   1.430       .  A
C2435      C2440   1.375       .  A
C2436      C2437   1.430       .  A
C2437      C2438   1.390       .  A
C2437     Br2444   1.917       .  S
C2438      H2443   1.085       .  S
C2438      C2439   1.392       .  A
C2439      C2440   1.377       .  A
C2440     Br2441   1.925       .  S
C2445      H2452   1.079       .  S
C2445      C2446   1.418       .  A
C2445      C2450   1.388       .  A
C2446      C2447   1.413       .  A
C2447      C2448   1.400       .  A
C2447     Br2454   1.915       .  S
C2448      H2453   1.083       .  S
C2448      C2449   1.400       .  A
C2449      C2450   1.403       .  A
C2450     Br2451   1.919       .  S
C2455      H2462   1.084       .  S
C2455      C2456   1.387       .  A
C2455      C2460   1.392       .  A
C2456      C2457   1.396       .  A
C2457      C2458   1.391       .  A
C2457     Br2464   1.917       .  S
C2458      H2463   1.075       .  S
C2458      C2459   1.419       .  A
C2459      C2460   1.444       .  A
C2460     Br2461   1.930       .  S
C2465      H2472   1.064       .  S
C2465      C2466   1.400       .  A
C2465      C2470   1.383       .  A
C2466      C2467   1.428       .  A
C2467      C2468   1.388       .  A
C2467     Br2474   1.918       .  S
C2468      H2473   1.084       .  S
C2468      C2469   1.392       .  A
C2469      C2470   1.400       .  A
C2470     Br2471   1.920       .  S
C2475      H2482   1.079       .  S
C2475      C2476   1.424       .  A
C2475      C2480   1.380       .  A
C2476      C2477   1.421       .  A
C2477      C2478   1.398       .  A
C2477     Br2484   1.926       .  S
C2478      H2483   1.083       .  S
C2478      C2479   1.404       .  A
C2479      C2480   1.395       .  A
C2480     Br2481   1.924   1_655  S
C2485      C2860   1.572       .  S
C2485      C2873   1.561       .  S
C2485      C2880   1.546       .  S
C2485      C2890   1.547       .  S
C2486      C2820   1.578       .  S
C2486      C2830   1.541       .  S
C2486      C2843   1.514       .  S
C2486      C2850   1.573       .  S
C2487      N2505   1.362       .  A
C2487      C2524   1.447       .  S
C2487      C2770   1.487       .  S
N2488      N2505   1.334       .  A
N2488      N2510   1.318       .  A
C2489      N2514   1.324       .  A
C2489      C2527   1.445       .  S
H2490      C2531   1.082       .  S
C2491      N2515   1.353       .  A
C2491      C2495   1.474   1_545  S
C2491      H2520   1.081       .  S
Co2492     N2510   2.039       .  S
Co2492     N2914   2.102       .  S
N2493      C2531   1.339       .  A
N2493     Co2494   2.090   1_565  S
Co2494     N2497   2.070   1_545  S
C2495      N2947   1.351       .  A
C2495      C3207   1.500       .  S
N2496      N2503   1.327       .  A
N2496      N2526   1.320       .  A
N2497      N2929   1.318   1_564  A
N2497      N2533   1.325       .  A
N2498      C2527   1.340       .  A
N2498      N2508   1.318       .  A
H2499      C2524   1.082       .  S
N2500      N2521   1.329       .  A
N2500     Co2906   2.102   1_554  S
N2501      N2933   1.320   1_554  A
N2501      N2506   1.330       .  A
C2502      N2506   1.358       .  A
C2502      C2944   1.452   1_554  S
C2502      C2763   1.476       .  S
N2503      C2518   1.334       .  A
C2504      N2532   1.351       .  A
C2504      C2507   1.473       .  S
C2504      H2538   1.081       .  S
C2507      N2528   1.353       .  A
C2507      C2783   1.497       .  S
N2508      N2514   1.319       .  A
N2509      C2535   1.349       .  A
N2509      N2511   1.321       .  A
N2510      C2524   1.332       .  A
N2511      N2539   1.329       .  A
N2511     Co2529   2.091       .  S
H2512      C2535   1.081   1_455  S
H2513      C2530   1.082       .  S
N2515      N2911   1.318   1_545  A
N2516      N2528   1.326       .  A
N2516      N2532   1.323       .  A
N2516     Co2525   2.086       .  S
C2517      N2521   1.352       .  A
C2517      C2800   1.485       .  S
C2518      C2537   1.460       .  S
C2518      H2522   1.081       .  S
N2519      C2530   1.329       .  A
N2519      N2915   1.320       .  A
N2519     Co2529   2.048       .  S
C2523      N2539   1.350       .  A
C2523      C2535   1.466       .  S
C2523      C2810   1.491       .  S
N2526      C2537   1.334       .  A
C2527      C2853   1.429       .  S
Co2529    Cl2536   2.453       .  S
C2530      C2916   1.452       .  S
N2533      C2909   1.351       .  A
C2537      C2863   1.461       .  S
C2540      N2558   1.352       .  A
C2540      C2577   1.456       .  S
C2540      C2750   1.493       .  S
N2541      N2972   1.331       .  A
N2541      N2563   1.323       .  A
N2541     Co2578   2.107       .  S
C2542      N2567   1.329       .  A
C2542      C2580   1.449       .  S
C2542      H2587   1.082       .  S
H2543      C2584   1.080       .  S
C2544      N2982   1.327       .  A
C2544      C2548   1.451       .  S
C2544      H2573   1.082       .  S
Co2545     N2563   2.105       .  S
Co2545     N2967   2.097       .  S
Co2545     N2585   2.077       .  S
Co2545     N2561   2.125       .  S
Co2545    Cl2589   2.462       .  S
N2546      C2584   1.345       .  A
N2546      N2553   1.316       .  A
N2546     Co2961   2.094   1_554  S
Co2547     N2960   2.094       .  S
Co2547     N2964   2.024       .  S
Co2547     N2567   2.051       .  S
Co2547     N2554   2.082       .  S
Co2547    Cl2589   2.424       .  S
C2548      N2586   1.339       .  A
C2548      C2840   1.435       .  S
N2549      N2556   1.315       .  A
N2549      N2579   1.328       .  A
N2549     Co2582   2.091       .  S
N2550      N2982   1.312       .  A
N2550      N2586   1.308       .  A
N2550     Co2961   2.024   1_554  S
N2551      C2580   1.365       .  A
N2551      N2561   1.336       .  A
H2552      C2577   1.078       .  S
N2553      N2574   1.326       .  A
N2553     Co2959   2.097   1_554  S
N2554      N2572   1.320       .  A
N2554      N2559   1.327       .  A
C2555      N2559   1.348       .  A
C2555      C2583   1.459       .  S
C2555      C2743   1.484       .  S
N2556      C2571   1.336       .  A
N2556     Co2578   2.071       .  S
C2557      N2585   1.335       .  A
C2557      C2560   1.466       .  S
C2557      H2591   1.081       .  S
N2558      N2955   1.331   1_554  A
C2560      N2581   1.345       .  A
C2560      C2870   1.465       .  S
N2561      N2567   1.315       .  A
N2562      C2588   1.362       .  A
N2562      N2564   1.315       .  A
N2562     Co2578   2.144       .  S
N2563      C2991   1.346       .  A
N2564      N2592   1.316       .  A
N2564     Co2582   2.049       .  S
H2565      C2588   1.081       .  S
H2566      C2583   1.079       .  S
N2568      C2958   1.327       .  A
N2568      N2964   1.312       .  A
N2568     Co2582   2.030       .  S
N2569      N2581   1.318       .  A
N2569      N2585   1.320       .  A
N2569     Co2578   2.051       .  S
C2570      N2574   1.353       .  A
C2570      C2584   1.468       .  S
C2570      C2723   1.495       .  S
C2571      C3004   1.458       .  S
C2571      H2575   1.082       .  S
N2572      C2583   1.344       .  A
N2572     Co2582   2.103       .  S
C2576      N2592   1.338       .  A
C2576      C2588   1.489       .  S
C2576      C2733   1.504       .  S
C2577      N2977   1.346   1_554  A
Co2578    Cl2589   2.441       .  S
N2579      C3004   1.355       .  A
C2580      C2773   1.493       .  S
Co2582    Cl2589   2.441       .  S
C2590      N2993   1.355       .  A
C2590      C2985   1.458       .  S
C2590      C2760   1.483       .  S
C2593      N2611   1.343       .  A
C2593      C2630   1.464       .  S
C2593      C2740   1.475       .  S
N2594      N2611   1.322       .  A
N2594      N2616   1.324       .  A
N2594     Co2631   2.073       .  S
C2595      N2620   1.335       .  A
C2595      H2640   1.082       .  S
H2596      C2637   1.080       .  S
C2597      N2621   1.336       .  A
C2597      C2601   1.448       .  S
C2597      H2626   1.079       .  S
Co2598     N2616   2.110       .  S
Co2598     N2606   2.108       .  S
Co2598     N2638   2.095       .  S
Co2598     N2614   2.105       .  S
N2599      C2637   1.346       .  A
N2599      N2606   1.318       .  A
Co2600     N2603   2.060       .  S
Co2600     N2620   2.074       .  S
Co2600     N2607   2.076       .  S
Co2600    Cl2642   2.429       .  S
C2601      N2639   1.345       .  A
C2601      C2893   1.461       .  S
N2602      N2609   1.316       .  A
N2602      N2632   1.334       .  A
N2602     Co2635   2.143       .  S
N2603      N2621   1.323       .  A
N2603      N2639   1.318       .  A
N2604      C2633   1.358       .  A
N2604      N2614   1.331       .  A
H2605      C2630   1.081       .  S
N2606      N2627   1.333       .  A
N2607      N2625   1.322       .  A
N2607      N2612   1.323       .  A
C2608      N2612   1.343       .  A
C2608      C2636   1.476       .  S
C2608      C2753   1.494       .  S
C2610      N2638   1.342       .  A
C2610      C2613   1.468       .  S
C2610      H2644   1.080       .  S
C2613      N2634   1.332       .  A
C2613      C2833   1.461       .  S
N2615      C2641   1.344       .  A
N2615      N2617   1.316       .  A
N2616      C2630   1.348       .  A
N2617      N2645   1.323       .  A
N2617     Co2635   2.062       .  S
H2618      C2641   1.081       .  S
H2619      C2636   1.081       .  S
N2621     Co2635   2.062       .  S
N2622      N2634   1.315       .  A
N2622      N2638   1.321       .  A
N2622     Co2631   2.016       .  S
C2623      N2627   1.360       .  A
C2623      C2637   1.473       .  S
C2623      C2713   1.516       .  S
C2624      H2628   1.082       .  S
N2625      C2636   1.356       .  A
N2625     Co2635   2.126       .  S
C2629      N2645   1.350       .  A
C2629      C2641   1.463       .  S
C2629      C2700   1.486       .  S
N2632      C2643   1.363       .  A
C2633      C2803   1.483       .  S
Co2635    Cl2642   2.465       .  S
C2643      C2813   1.493       .  S
C2646      N2664   1.368       .  A
C2646      C2683   1.446   1_565  S
C2646      C2780   1.495       .  S
N2647      N2664   1.338   1_545  A
N2647      N2669   1.318       .  A
C2648      N2673   1.338       .  A
C2648      C2686   1.465       .  S
C2648      H2693   1.081       .  S
H2649      C2690   1.081       .  S
C2650      N2674   1.348       .  A
C2650      C2654   1.479       .  S
C2650      H2679   1.079       .  S
Co2651     N2691   2.142       .  S
Co2651     N2667   2.038       .  S
N2652      C2690   1.349       .  A
N2652      N2659   1.323       .  A
N2652     Co2653   2.116   1_565  S
Co2653     N2656   2.076   1_545  S
Co2653    Cl2695   2.467       .  S
C2654      N2692   1.351       .  A
C2654      C2720   1.501       .  S
N2655      N2662   1.323       .  A
N2655      N2685   1.317       .  A
N2655     Co2688   2.049       .  S
N2656      N2674   1.319       .  A
N2656      N2692   1.322       .  A
N2657      C2686   1.336       .  A
N2657      N2667   1.316       .  A
H2658      C2683   1.082       .  S
N2659      N2680   1.333       .  A
N2660      N2678   1.318       .  A
N2660      N2665   1.337       .  A
C2661      N2665   1.366       .  A
C2661      C2689   1.453       .  S
C2661      C2790   1.499       .  S
N2662      C2677   1.329       .  A
C2663      N2691   1.355       .  A
C2663      C2666   1.484       .  S
C2663      H2697   1.081       .  S
C2666      N2687   1.343       .  A
C2666      C2730   1.487       .  S
N2667      N2673   1.322       .  A
N2668      C2694   1.339       .  A
N2668      N2670   1.320       .  A
N2668     Co2684   2.095       .  S
N2669      C2683   1.332       .  A
N2670      N2698   1.328       .  A
H2671      C2694   1.080       .  S
H2672      C2689   1.082       .  S
N2674     Co2688   2.120       .  S
N2675      N2687   1.321       .  A
N2675      N2691   1.316       .  A
N2675     Co2684   2.051       .  S
C2676      N2680   1.355       .  A
C2676      C2690   1.464       .  S
C2676      C2710   1.500       .  S
C2677      C2696   1.452       .  S
C2677      H2681   1.081       .  S
N2678      C2689   1.335       .  A
C2682      N2698   1.354       .  A
C2682      C2694   1.464       .  S
C2682      C2703   1.495       .  S
N2685      C2696   1.338       .  A
C2686      C2823   1.453       .  S
Co2688    Cl2695   2.434   1_565  S
C2696      C2883   1.442       .  S
C2699      H2706   1.083       .  S
C2699      C2700   1.405       .  A
C2699      C2704   1.407       .  A
C2700      C2701   1.413       .  A
C2701      C2702   1.396       .  A
C2701     Br2708   1.923       .  S
C2702      H2707   1.081       .  S
C2702      C2703   1.406       .  A
C2703      C2704   1.417       .  A
C2704     Br2705   1.920       .  S
C2709      H2716   1.084       .  S
C2709      C2710   1.402       .  A
C2709      C2714   1.412       .  A
C2710      C2711   1.411       .  A
C2711      C2712   1.414       .  A
C2711     Br2718   1.917       .  S
C2712      H2717   1.083       .  S
C2712      C2713   1.411       .  A
C2713      C2714   1.425       .  A
C2714     Br2715   1.917       .  S
C2719      H2726   1.084       .  S
C2719      C2720   1.409       .  A
C2719      C2724   1.404       .  A
C2720      C2721   1.418       .  A
C2721      C2722   1.406       .  A
C2721     Br2728   1.916       .  S
C2722      H2727   1.084       .  S
C2722      C2723   1.406       .  A
C2723      C2724   1.413       .  A
C2724     Br2725   1.919       .  S
C2729      H2736   1.084       .  S
C2729      C2730   1.395       .  A
C2729      C2734   1.400       .  A
C2730      C2731   1.413       .  A
C2731      C2732   1.414       .  A
C2731     Br2738   1.916       .  S
C2732      H2737   1.083       .  S
C2732      C2733   1.408       .  A
C2733      C2734   1.426       .  A
C2734     Br2735   1.925       .  S
C2739      H2746   1.084       .  S
C2739      C2740   1.397       .  A
C2739      C2744   1.400       .  A
C2740      C2741   1.411       .  A
C2741      C2742   1.402       .  A
C2741     Br2748   1.920       .  S
C2742      H2747   1.084       .  S
C2742      C2743   1.402       .  A
C2743      C2744   1.416       .  A
C2744     Br2745   1.914       .  S
C2749      H2756   1.083       .  S
C2749      C2750   1.410       .  A
C2749      C2754   1.411       .  A
C2750      C2751   1.405       .  A
C2751      C2752   1.406       .  A
C2751     Br2758   1.915       .  S
C2752      H2757   1.084       .  S
C2752      C2753   1.410       .  A
C2753      C2754   1.409       .  A
C2754     Br2755   1.916       .  S
C2759      H2766   1.084       .  S
C2759      C2760   1.408       .  A
C2759      C2764   1.401       .  A
C2760      C2761   1.413       .  A
C2761      C2762   1.400       .  A
C2761     Br3182   1.921       .  S
C2762      H2767   1.084       .  S
C2762      C2763   1.406       .  A
C2763      C2764   1.401       .  A
C2764     Br2765   1.913       .  S
Br2768     C3175   1.921       .  S
C2769      H2776   1.083       .  S
C2769      C2770   1.412       .  A
C2769      C2774   1.409       .  A
C2770      C2771   1.402       .  A
C2771      C2772   1.400       .  A
C2771     Br2778   1.911       .  S
C2772      H2777   1.084       .  S
C2772      C2773   1.409       .  A
C2773      C2774   1.412       .  A
C2774     Br2775   1.918       .  S
C2779      H2786   1.083       .  S
C2779      C2784   1.416       .  A
C2780      C2781   1.413       .  A
C2781     Br2788   1.921       .  S
C2782      C2783   1.403       .  A
C2783      C2784   1.413       .  A
C2784     Br2785   1.916       .  S
C2789      H2796   1.084       .  S
C2789      C2794   1.405       .  A
C2790      C2791   1.410       .  A
C2791     Br2798   1.914       .  S
C2792      H2797   1.083       .  S
C2792      C2793   1.411   1_545  A
C2793      C2909   1.500       .  S
C2793      C2794   1.412       .  A
C2794     Br2795   1.921       .  S
C2799      H2806   1.083       .  S
C2799      C2800   1.409       .  A
C2799      C2804   1.411       .  A
C2800      C2801   1.409       .  A
C2801      C2802   1.395       .  A
C2801     Br2808   1.921       .  S
C2802      H2807   1.081       .  S
C2802      C2803   1.402       .  A
C2803      C2804   1.409       .  A
C2804     Br2805   1.916       .  S
C2809      H2816   1.083       .  S
C2809      C2810   1.403   1_455  A
C2809      C2814   1.406       .  A
C2810      C2811   1.412       .  A
C2811      C2812   1.409       .  A
C2811     Br2818   1.918       .  S
C2812      H2817   1.081       .  S
C2812      C2813   1.406       .  A
C2813      C2814   1.413   1_655  A
C2819      H2826   1.077       .  S
C2819      C2820   1.433       .  A
C2819      C2824   1.381       .  A
C2820      C2821   1.421       .  A
C2821      C2822   1.397       .  A
C2821     Br2828   1.903       .  S
C2822      H2827   1.084       .  S
C2822      C2823   1.400       .  A
C2823      C2824   1.390       .  A
C2824     Br2825   1.922       .  S
C2829      H2836   1.083       .  S
C2829      C2830   1.412       .  A
C2829      C2834   1.391       .  A
C2830      C2831   1.452       .  A
C2831      C2832   1.388       .  A
C2831     Br2838   1.940       .  S
C2832      H2837   1.084       .  S
C2832      C2833   1.381       .  A
C2833      C2834   1.401       .  A
C2834     Br2835   1.916       .  S
C2839      H2846   1.085       .  S
C2839      C2840   1.387       .  A
C2839      C2844   1.377       .  A
C2840      C2841   1.419       .  A
C2841      C2842   1.373       .  A
C2841     Br3262   1.929       .  S
C2842      H2847   1.074       .  S
C2842      C2843   1.399       .  A
C2843      C2844   1.430       .  A
C2844     Br2845   1.923       .  S
Br2848     C3255   1.929       .  S
C2849      H2856   1.067       .  S
C2849      C2850   1.430       .  A
C2849      C2854   1.375       .  A
C2850      C2851   1.430       .  A
C2851      C2852   1.390       .  A
C2851     Br2858   1.917       .  S
C2852      H2857   1.085       .  S
C2852      C2853   1.392       .  A
C2853      C2854   1.377       .  A
C2854     Br2855   1.925       .  S
C2859      H2866   1.079       .  S
C2859      C2860   1.418       .  A
C2859      C2864   1.388       .  A
C2860      C2861   1.413       .  A
C2861      C2862   1.400       .  A
C2861     Br2868   1.915       .  S
C2862      H2867   1.083       .  S
C2862      C2863   1.400       .  A
C2863      C2864   1.403       .  A
C2864     Br2865   1.919       .  S
C2869      H2876   1.084       .  S
C2869      C2870   1.387       .  A
C2869      C2874   1.392       .  A
C2870      C2871   1.396       .  A
C2871      C2872   1.391       .  A
C2871     Br2878   1.917       .  S
C2872      H2877   1.075       .  S
C2872      C2873   1.419       .  A
C2873      C2874   1.444       .  A
C2874     Br2875   1.930       .  S
C2879      H2886   1.064       .  S
C2879      C2880   1.400       .  A
C2879      C2884   1.383       .  A
C2880      C2881   1.428       .  A
C2881      C2882   1.388       .  A
C2881     Br2888   1.918       .  S
C2882      H2887   1.084       .  S
C2882      C2883   1.392       .  A
C2883      C2884   1.400       .  A
C2884     Br2885   1.920       .  S
C2889      H2896   1.079       .  S
C2889      C2890   1.424       .  A
C2889      C2894   1.380       .  A
C2890      C2891   1.421       .  A
C2891      C2892   1.398       .  A
C2891     Br2898   1.926       .  S
C2892      H2897   1.083       .  S
C2892      C2893   1.404       .  A
C2893      C2894   1.395       .  A
C2894     Br2895   1.924   1_655  S
C2899      C3274   1.572       .  S
C2899      C3287   1.561       .  S
C2899      C3294   1.546       .  S
C2899      C3304   1.547       .  S
C2900      C3234   1.578       .  S
C2900      C3244   1.541       .  S
C2900      C3257   1.514       .  S
C2900      C3264   1.573       .  S
C2901      N2919   1.362       .  A
C2901      C2938   1.447       .  S
C2901      C3184   1.487       .  S
N2902      N2919   1.334       .  A
N2902      N2924   1.318       .  A
C2903      N2928   1.324       .  A
C2903      C2941   1.445       .  S
H2904      C2945   1.082       .  S
C2905      N2929   1.353       .  A
C2905      C2909   1.474   1_546  S
C2905      H2934   1.081       .  S
Co2906     N2924   2.039       .  S
N2907      C2945   1.339       .  A
N2907     Co2908   2.090   1_565  S
Co2908     N2911   2.070   1_545  S
N2910      N2917   1.327       .  A
N2910      N2940   1.320       .  A
N2911      N2947   1.325       .  A
N2912      C2941   1.340       .  A
N2912      N2922   1.318       .  A
H2913      C2938   1.082       .  S
N2914      N2935   1.329       .  A
N2915      N2920   1.330       .  A
C2916      N2920   1.358       .  A
C2916      C3177   1.476       .  S
N2917      C2932   1.334       .  A
C2918      N2946   1.351       .  A
C2918      C2921   1.473       .  S
C2918      H2952   1.081       .  S
C2921      N2942   1.353       .  A
C2921      C3197   1.497       .  S
N2922      N2928   1.319       .  A
N2923      C2949   1.349       .  A
N2923      N2925   1.321       .  A
N2924      C2938   1.332       .  A
N2925      N2953   1.329       .  A
N2925     Co2943   2.091       .  S
H2926      C2949   1.081   1_455  S
H2927      C2944   1.082       .  S
N2930      N2942   1.326       .  A
N2930      N2946   1.323       .  A
N2930     Co2939   2.086       .  S
C2931      N2935   1.352       .  A
C2931      C3214   1.485       .  S
C2932      C2951   1.460       .  S
C2932      H2936   1.081       .  S
N2933      C2944   1.329       .  A
N2933     Co2943   2.048       .  S
C2937      N2953   1.350       .  A
C2937      C2949   1.466       .  S
C2937      C3224   1.491       .  S
N2940      C2951   1.334       .  A
C2941      C3267   1.429       .  S
Co2943    Cl2950   2.453       .  S
C2951      C3277   1.461       .  S
C2954      N2972   1.352       .  A
C2954      C2991   1.456       .  S
C2954      C3164   1.493       .  S
N2955      N2977   1.323       .  A
N2955     Co2992   2.107       .  S
C2956      N2981   1.329       .  A
C2956      C2994   1.449       .  S
C2956      H3001   1.082       .  S
H2957      C2998   1.080       .  S
C2958      C2962   1.451       .  S
C2958      H2987   1.082       .  S
Co2959     N2977   2.105       .  S
Co2959     N2999   2.077       .  S
Co2959     N2975   2.125       .  S
Co2959    Cl3003   2.462       .  S
N2960      C2998   1.345       .  A
N2960      N2967   1.316       .  A
Co2961     N2981   2.051       .  S
Co2961     N2968   2.082       .  S
Co2961    Cl3003   2.424       .  S
C2962      N3000   1.339       .  A
C2962      C3254   1.435       .  S
N2963      N2970   1.315       .  A
N2963      N2993   1.328   1_556  A
N2963     Co2996   2.091       .  S
N2964      N3000   1.308       .  A
N2965      C2994   1.365       .  A
N2965      N2975   1.336       .  A
H2966      C2991   1.078       .  S
N2967      N2988   1.326       .  A
N2968      N2986   1.320       .  A
N2968      N2973   1.327       .  A
C2969      N2973   1.348       .  A
C2969      C2997   1.459       .  S
C2969      C3157   1.484       .  S
N2970      C2985   1.336   1_556  A
N2970     Co2992   2.071       .  S
C2971      N2999   1.335       .  A
C2971      C2974   1.466       .  S
C2971      H3005   1.081       .  S
C2974      N2995   1.345       .  A
C2974      C3284   1.465       .  S
N2975      N2981   1.315       .  A
N2976      C3002   1.362       .  A
N2976      N2978   1.315       .  A
N2976     Co2992   2.144       .  S
N2978      N3006   1.316       .  A
N2978     Co2996   2.049       .  S
H2979      C3002   1.081       .  S
H2980      C2997   1.079       .  S
N2982     Co2996   2.030   1_554  S
N2983      N2995   1.318       .  A
N2983      N2999   1.320       .  A
N2983     Co2992   2.051       .  S
C2984      N2988   1.353       .  A
C2984      C2998   1.468       .  S
C2984      C3137   1.495       .  S
C2985      H2989   1.082       .  S
N2986      C2997   1.344       .  A
N2986     Co2996   2.103       .  S
C2990      N3006   1.338       .  A
C2990      C3002   1.489       .  S
C2990      C3147   1.504       .  S
Co2992    Cl3003   2.441       .  S
C2994      C3187   1.493       .  S
Co2996    Cl3003   2.441       .  S
C3004      C3174   1.483       .  S
C3007      N3025   1.343       .  A
C3007      C3044   1.464       .  S
C3007      C3154   1.475       .  S
N3008      N3025   1.322       .  A
N3008      N3030   1.324       .  A
N3008     Co3045   2.073       .  S
C3009      N3034   1.335       .  A
C3009      H3054   1.082       .  S
H3010      C3051   1.080       .  S
C3011      N3035   1.336       .  A
C3011      C3015   1.448       .  S
C3011      H3040   1.079       .  S
Co3012     N3030   2.110       .  S
Co3012     N3020   2.108       .  S
Co3012     N3052   2.095       .  S
Co3012     N3028   2.105       .  S
N3013      C3051   1.346       .  A
N3013      N3020   1.318       .  A
Co3014     N3017   2.060       .  S
Co3014     N3034   2.074       .  S
Co3014     N3021   2.076       .  S
Co3014    Cl3056   2.429       .  S
C3015      N3053   1.345       .  A
C3015      C3307   1.461       .  S
N3016      N3023   1.316       .  A
N3016      N3046   1.334       .  A
N3016     Co3049   2.143       .  S
N3017      N3035   1.323       .  A
N3017      N3053   1.318       .  A
N3018      C3047   1.358       .  A
N3018      N3028   1.331       .  A
H3019      C3044   1.081       .  S
N3020      N3041   1.333       .  A
N3021      N3039   1.322       .  A
N3021      N3026   1.323       .  A
C3022      N3026   1.343       .  A
C3022      C3050   1.476       .  S
C3022      C3167   1.494       .  S
C3024      N3052   1.342       .  A
C3024      C3027   1.468       .  S
C3024      H3058   1.080       .  S
C3027      N3048   1.332       .  A
C3027      C3247   1.461       .  S
N3029      C3055   1.344       .  A
N3029      N3031   1.316       .  A
N3030      C3044   1.348       .  A
N3031      N3059   1.323       .  A
N3031     Co3049   2.062       .  S
H3032      C3055   1.081       .  S
H3033      C3050   1.081       .  S
N3035     Co3049   2.062       .  S
N3036      N3048   1.315       .  A
N3036      N3052   1.321       .  A
N3036     Co3045   2.016       .  S
C3037      N3041   1.360       .  A
C3037      C3051   1.473       .  S
C3037      C3127   1.516       .  S
C3038      H3042   1.082       .  S
N3039      C3050   1.356       .  A
N3039     Co3049   2.126       .  S
C3043      N3059   1.350       .  A
C3043      C3055   1.463       .  S
C3043      C3114   1.486       .  S
N3046      C3057   1.363       .  A
C3047      C3217   1.483       .  S
Co3049    Cl3056   2.465       .  S
C3057      C3227   1.493       .  S
C3060      N3078   1.368       .  A
C3060      C3097   1.446   1_565  S
C3060      C3194   1.495       .  S
N3061      N3078   1.338   1_545  A
N3061      N3083   1.318       .  A
C3062      N3087   1.338       .  A
C3062      C3100   1.465       .  S
C3062      H3107   1.081       .  S
H3063      C3104   1.081       .  S
C3064      N3088   1.348       .  A
C3064      C3068   1.479       .  S
C3064      H3093   1.079       .  S
Co3065     N3105   2.142       .  S
Co3065     N3081   2.038       .  S
N3066      C3104   1.349       .  A
N3066      N3073   1.323       .  A
N3066     Co3067   2.116   1_565  S
Co3067     N3070   2.076   1_545  S
Co3067    Cl3109   2.467       .  S
C3068      N3106   1.351       .  A
C3068      C3134   1.501       .  S
N3069      N3076   1.323       .  A
N3069      N3099   1.317       .  A
N3069     Co3102   2.049       .  S
N3070      N3088   1.319       .  A
N3070      N3106   1.322       .  A
N3071      C3100   1.336       .  A
N3071      N3081   1.316       .  A
H3072      C3097   1.082       .  S
N3073      N3094   1.333       .  A
N3074      N3092   1.318       .  A
N3074      N3079   1.337       .  A
C3075      N3079   1.366       .  A
C3075      C3103   1.453       .  S
C3075      C3204   1.499       .  S
N3076      C3091   1.329       .  A
C3077      N3105   1.355       .  A
C3077      C3080   1.484       .  S
C3077      H3111   1.081       .  S
C3080      N3101   1.343       .  A
C3080      C3144   1.487       .  S
N3081      N3087   1.322       .  A
N3082      C3108   1.339       .  A
N3082      N3084   1.320       .  A
N3082     Co3098   2.095       .  S
N3083      C3097   1.332       .  A
N3084      N3112   1.328       .  A
H3085      C3108   1.080       .  S
H3086      C3103   1.082       .  S
N3088     Co3102   2.120       .  S
N3089      N3101   1.321       .  A
N3089      N3105   1.316       .  A
N3089     Co3098   2.051       .  S
C3090      N3094   1.355       .  A
C3090      C3104   1.464       .  S
C3090      C3124   1.500       .  S
C3091      C3110   1.452       .  S
C3091      H3095   1.081       .  S
N3092      C3103   1.335       .  A
C3096      N3112   1.354       .  A
C3096      C3108   1.464       .  S
C3096      C3117   1.495       .  S
N3099      C3110   1.338       .  A
C3100      C3237   1.453       .  S
Co3102    Cl3109   2.434   1_565  S
C3110      C3297   1.442       .  S
C3113      H3120   1.083       .  S
C3113      C3114   1.405       .  A
C3113      C3118   1.407       .  A
C3114      C3115   1.413       .  A
C3115      C3116   1.396       .  A
C3115     Br3122   1.923       .  S
C3116      H3121   1.081       .  S
C3116      C3117   1.406       .  A
C3117      C3118   1.417       .  A
C3118     Br3119   1.920       .  S
C3123      H3130   1.084       .  S
C3123      C3124   1.402       .  A
C3123      C3128   1.412       .  A
C3124      C3125   1.411       .  A
C3125      C3126   1.414       .  A
C3125     Br3132   1.917       .  S
C3126      H3131   1.083       .  S
C3126      C3127   1.411       .  A
C3127      C3128   1.425       .  A
C3128     Br3129   1.917       .  S
C3133      H3140   1.084       .  S
C3133      C3134   1.409       .  A
C3133      C3138   1.404       .  A
C3134      C3135   1.418       .  A
C3135      C3136   1.406       .  A
C3135     Br3142   1.916       .  S
C3136      H3141   1.084       .  S
C3136      C3137   1.406       .  A
C3137      C3138   1.413       .  A
C3138     Br3139   1.919       .  S
C3143      H3150   1.084       .  S
C3143      C3144   1.395       .  A
C3143      C3148   1.400       .  A
C3144      C3145   1.413       .  A
C3145      C3146   1.414       .  A
C3145     Br3152   1.916       .  S
C3146      H3151   1.083       .  S
C3146      C3147   1.408       .  A
C3147      C3148   1.426       .  A
C3148     Br3149   1.925       .  S
C3153      H3160   1.084       .  S
C3153      C3154   1.397       .  A
C3153      C3158   1.400       .  A
C3154      C3155   1.411       .  A
C3155      C3156   1.402       .  A
C3155     Br3162   1.920       .  S
C3156      H3161   1.084       .  S
C3156      C3157   1.402       .  A
C3157      C3158   1.416       .  A
C3158     Br3159   1.914       .  S
C3163      H3170   1.083       .  S
C3163      C3164   1.410       .  A
C3163      C3168   1.411       .  A
C3164      C3165   1.405       .  A
C3165      C3166   1.406       .  A
C3165     Br3172   1.915       .  S
C3166      H3171   1.084       .  S
C3166      C3167   1.410       .  A
C3167      C3168   1.409       .  A
C3168     Br3169   1.916       .  S
C3173      H3180   1.084       .  S
C3173      C3174   1.408       .  A
C3173      C3178   1.401       .  A
C3174      C3175   1.413       .  A
C3175      C3176   1.400       .  A
C3176      H3181   1.084       .  S
C3176      C3177   1.406       .  A
C3177      C3178   1.401       .  A
C3178     Br3179   1.913       .  S
C3183      H3190   1.083       .  S
C3183      C3184   1.412       .  A
C3183      C3188   1.409       .  A
C3184      C3185   1.402       .  A
C3185      C3186   1.400       .  A
C3185     Br3192   1.911       .  S
C3186      H3191   1.084       .  S
C3186      C3187   1.409       .  A
C3187      C3188   1.412       .  A
C3188     Br3189   1.918       .  S
C3193      H3200   1.083       .  S
C3193      C3198   1.416       .  A
C3194      C3195   1.413       .  A
C3195     Br3202   1.921       .  S
C3196      C3197   1.403       .  A
C3197      C3198   1.413       .  A
C3198     Br3199   1.916       .  S
C3203      H3210   1.084       .  S
C3203      C3208   1.405       .  A
C3204      C3205   1.410       .  A
C3205     Br3212   1.914       .  S
C3206      H3211   1.083       .  S
C3206      C3207   1.411   1_545  A
C3207      C3208   1.412       .  A
C3208     Br3209   1.921       .  S
C3213      H3220   1.083       .  S
C3213      C3214   1.409       .  A
C3213      C3218   1.411       .  A
C3214      C3215   1.409       .  A
C3215      C3216   1.395       .  A
C3215     Br3222   1.921       .  S
C3216      H3221   1.081       .  S
C3216      C3217   1.402       .  A
C3217      C3218   1.409       .  A
C3218     Br3219   1.916       .  S
C3223      H3230   1.083       .  S
C3223      C3224   1.403   1_455  A
C3223      C3228   1.406       .  A
C3224      C3225   1.412       .  A
C3225      C3226   1.409       .  A
C3225     Br3232   1.918       .  S
C3226      H3231   1.081       .  S
C3226      C3227   1.406       .  A
C3227      C3228   1.413   1_655  A
C3233      H3240   1.077       .  S
C3233      C3234   1.433       .  A
C3233      C3238   1.381       .  A
C3234      C3235   1.421       .  A
C3235      C3236   1.397       .  A
C3235     Br3242   1.903       .  S
C3236      H3241   1.084       .  S
C3236      C3237   1.400       .  A
C3237      C3238   1.390       .  A
C3238     Br3239   1.922       .  S
C3243      H3250   1.083       .  S
C3243      C3244   1.412       .  A
C3243      C3248   1.391       .  A
C3244      C3245   1.452       .  A
C3245      C3246   1.388       .  A
C3245     Br3252   1.940       .  S
C3246      H3251   1.084       .  S
C3246      C3247   1.381       .  A
C3247      C3248   1.401       .  A
C3248     Br3249   1.916       .  S
C3253      H3260   1.085       .  S
C3253      C3254   1.387       .  A
C3253      C3258   1.377       .  A
C3254      C3255   1.419       .  A
C3255      C3256   1.373       .  A
C3256      H3261   1.074       .  S
C3256      C3257   1.399       .  A
C3257      C3258   1.430       .  A
C3258     Br3259   1.923       .  S
C3263      H3270   1.067       .  S
C3263      C3264   1.430       .  A
C3263      C3268   1.375       .  A
C3264      C3265   1.430       .  A
C3265      C3266   1.390       .  A
C3265     Br3272   1.917       .  S
C3266      H3271   1.085       .  S
C3266      C3267   1.392       .  A
C3267      C3268   1.377       .  A
C3268     Br3269   1.925       .  S
C3273      H3280   1.079       .  S
C3273      C3274   1.418       .  A
C3273      C3278   1.388       .  A
C3274      C3275   1.413       .  A
C3275      C3276   1.400       .  A
C3275     Br3282   1.915       .  S
C3276      H3281   1.083       .  S
C3276      C3277   1.400       .  A
C3277      C3278   1.403       .  A
C3278     Br3279   1.919       .  S
C3283      H3290   1.084       .  S
C3283      C3284   1.387       .  A
C3283      C3288   1.392       .  A
C3284      C3285   1.396       .  A
C3285      C3286   1.391       .  A
C3285     Br3292   1.917       .  S
C3286      H3291   1.075       .  S
C3286      C3287   1.419       .  A
C3287      C3288   1.444       .  A
C3288     Br3289   1.930       .  S
C3293      H3300   1.064       .  S
C3293      C3294   1.400       .  A
C3293      C3298   1.383       .  A
C3294      C3295   1.428       .  A
C3295      C3296   1.388       .  A
C3295     Br3302   1.918       .  S
C3296      H3301   1.084       .  S
C3296      C3297   1.392       .  A
C3297      C3298   1.400       .  A
C3298     Br3299   1.920       .  S
C3303      H3310   1.079       .  S
C3303      C3304   1.424       .  A
C3303      C3308   1.380       .  A
C3304      C3305   1.421       .  A
C3305      C3306   1.398       .  A
C3305     Br3312   1.926       .  S
C3306      H3311   1.083       .  S
C3306      C3307   1.404       .  A
C3307      C3308   1.395       .  A
C3308     Br3309   1.924   1_655  S
