geometry optimzed in LAMMPS
_audit_creation_date              2020-12-01 
_audit_creation_method            'lammps2cif' 
_symmetry_space_group_name_H-M    'P1' 
_symmetry_Int_Tables_number       1 
_symmetry_cell_setting            triclinic 
loop_ 
_symmetry_equiv_pos_as_xyz 
  x,y,z 
_cell_length_a                    36.2344008 
_cell_length_b                    36.970550647866055 
_cell_length_c                    37.95291250368019 
_cell_angle_alpha                 92.35105064547842 
_cell_angle_beta                  90.11783100554271 
_cell_angle_gamma                 90.13164600276497 
loop_ 
_atom_site_label 
_atom_site_type_symbol 
_atom_site_fract_x 
_atom_site_fract_y 
_atom_site_fract_z 
_atom_site_charge 
C1          C  0.20776463  0.22340861  0.21171674     0.87100
C2          C  0.23398863  0.19993067  0.23284694    -0.53200
C3          C  0.25441744  0.21850214  0.25777885     0.10000
C4          C  0.24639061  0.25960934  0.26002919     0.20900
C5          C  0.18439445  0.24400910  0.23988640    -0.53900
C6          C  0.20412085  0.26253943  0.26542433     0.10100
C7          C  0.23234654  0.25323372  0.19715919    -0.53400
C8          C  0.25265044  0.27225419  0.22212096     0.10700
H9          H  0.23654553  0.17085829  0.22814062     0.15200
H10         H  0.26292463  0.27480129  0.28040355     0.00900
H11         H  0.15480805  0.24699670  0.23892683     0.15500
H12         H  0.23404186  0.25842440  0.16924894     0.15300
C13         C  0.09148602  0.45614302  0.42190825     0.30600
C14         C  0.09465213  0.51842369  0.46486463     0.30600
C15         C  0.11366450  0.48819861  0.40774177    -0.05600
C16         C  0.05395465  0.47400945  0.43141730    -0.06400
C17         C  0.10949517  0.45247416  0.45881407    -0.06300
C18         C  0.11376750  0.51968612  0.42895260    -0.05600
C19         C  0.05505739  0.50562249  0.45364634    -0.06400
C20         C  0.10980679  0.48386361  0.48026748    -0.06300
C21         C  0.13036315  0.54641260  0.41039380    -0.31700
N22         N  0.14181177  0.53189869  0.37897692     0.14800
C23         C  0.13253893  0.49626318  0.37732833    -0.31700
H24         H  0.13762338  0.47826797  0.35471781     0.16800
C25         C  0.01838570  0.51489198  0.46002817    -0.30700
N26         N  0.99598044  0.49056548  0.44239561     0.13600
C27         C  0.01738295  0.46565800  0.42484901    -0.30600
C28         C  0.12458854  0.47577338  0.51233709    -0.30900
N29         N  0.13427478  0.44048075  0.51119316     0.14100
H30         H  0.12824020  0.49434818  0.53486934     0.16700
C31         C  0.12656535  0.42626625  0.47845773    -0.30900
H32         H  0.13329028  0.39878937  0.47024176     0.16700
H33         H  0.00715988  0.44244837  0.40947440     0.16700
H34         H  0.13306108  0.57464440  0.41876601     0.16800
H35         H  0.00825113  0.53721000  0.47636865     0.16700
C36         C  0.21020071  0.75776144  0.67879735     0.87100
C37         C  0.23518673  0.77988919  0.65521376    -0.53200
C38         C  0.25361741  0.76002111  0.62977351     0.10000
C39         C  0.24491190  0.71903187  0.62970645     0.20900
C40         C  0.18459712  0.73613741  0.65337879    -0.53900
C41         C  0.20239509  0.71599379  0.62774689     0.10100
C42         C  0.23624793  0.72855277  0.69293215    -0.53400
C43         C  0.25432061  0.70816963  0.66752755     0.10700
H44         H  0.23865193  0.80899755  0.65889967     0.15200
H45         H  0.25925671  0.70257453  0.60882124     0.00900
H46         H  0.15476934  0.73577575  0.65618735     0.15500
H47         H  0.24061880  0.72330825  0.72037912     0.15300
C48         C  0.44578754  0.09700534  0.41081388     0.30600
C49         C  0.50080021  0.09404672  0.46118394     0.30600
C50         C  0.44006931  0.11961267  0.44522122    -0.05600
C51         C  0.45369776  0.05860122  0.42522159    -0.06400
C52         C  0.48520149  0.10842740  0.39949790    -0.06300
C53         C  0.46797677  0.11890779  0.47031254    -0.05600
C54         C  0.48158577  0.05810522  0.45113313    -0.06400
C55         C  0.51245965  0.10845929  0.42537574    -0.06300
C56         C  0.45705334  0.14150194  0.49809412    -0.31700
N57         N  0.42264851  0.15369961  0.49148704     0.14800
C58         C  0.41202715  0.14090195  0.45908113    -0.31700
H59         H  0.38552767  0.14586514  0.44699297     0.16800
C60         C  0.48649283  0.02314050  0.46106592    -0.30700
N61         N  0.46292676  0.00168399  0.44217402     0.13600
C62         C  0.44386664  0.02231651  0.41931482    -0.30600
C63         C  0.54230184  0.12730118  0.41256992    -0.30900
N64         N  0.53489285  0.13649081  0.37901338     0.14100
H65         H  0.56730560  0.13448484  0.42685171     0.16700
C66         C  0.50055216  0.12430840  0.37053105    -0.30900
H67         H  0.48694796  0.12880267  0.34568398     0.16700
H68         H  0.42606456  0.01127202  0.39869646     0.16700
H69         H  0.47213970  0.14809789  0.52210373     0.16800
H70         H  0.50671752  0.01370677  0.47957625     0.16700
C71         C  0.75785988  0.25449489  0.17011147     0.87100
C72         C  0.73434334  0.27960302  0.14765690    -0.53200
C73         C  0.71097836  0.30232581  0.16607515     0.10000
C74         C  0.71462875  0.29886007  0.20663001     0.20900
C75         C  0.77854150  0.28109801  0.19517392    -0.53900
C76         C  0.75640619  0.30420292  0.21461380     0.10100
C77         C  0.72982382  0.23564129  0.19360145    -0.53400
C78         C  0.70736294  0.25850005  0.21284821     0.10700
H79         H  0.73652385  0.28122823  0.11946032     0.15200
H80         H  0.69640855  0.31692959  0.22277329     0.00900
H81         H  0.80834673  0.28085811  0.19814308     0.15500
H82         H  0.72832526  0.20641343  0.19531944     0.15300
C83         C  0.23121451  0.23964702  0.74301186     0.87100
C84         C  0.20845419  0.26804422  0.72422276    -0.53200
C85         C  0.22899986  0.29372963  0.70845837     0.10000
C86         C  0.27083339  0.28919985  0.71339150     0.20900
C87         C  0.25835708  0.22469550  0.71487589    -0.53900
C88         C  0.27872893  0.25053609  0.69866373     0.10100
C89         C  0.25627788  0.26167557  0.76874482    -0.53400
C90         C  0.27667540  0.28759800  0.75342164     0.10700
H91         H  0.17860457  0.26662083  0.72171954     0.15200
H92         H  0.28753307  0.31064412  0.70156242     0.00900
H93         H  0.26028406  0.19604992  0.70765639     0.15500
H94         H  0.25971063  0.25703856  0.79648094     0.15300
C95         C  0.85994437  0.50517673  0.47960144     0.30600
C96         C  0.85904861  0.46629753  0.41575444     0.30600
C97         C  0.84071904  0.52293585  0.44892762    -0.05600
C98         C  0.89879533  0.49695469  0.46302746    -0.06400
C99         C  0.84334001  0.46707384  0.47933864    -0.06300
C100        C  0.84051572  0.50372989  0.41679985    -0.05600
C101        C  0.89813781  0.47702070  0.43014377    -0.06400
C102        C  0.84230096  0.44788891  0.44730736    -0.06300
C103        C  0.83197265  0.52821778  0.39154336    -0.31700
N104        N  0.82493656  0.56063090  0.40783447     0.14800
C105        C  0.83120855  0.55820935  0.44272970    -0.31700
H106        H  0.83027831  0.58070858  0.46187756     0.16800
C107        C  0.93431942  0.47385914  0.41889641    -0.30700
N108        N  0.95683598  0.48991824  0.44368925     0.13600
C109        C  0.93571499  0.50413481  0.47046001    -0.30600
C110        C  0.82819235  0.41405645  0.45337184    -0.30900
N111        N  0.82096314  0.41244445  0.48831217     0.14100
H112        H  0.82407965  0.39207430  0.43402972     0.16700
C113        C  0.83020328  0.44457820  0.50442773    -0.30900
H114        H  0.82810728  0.45082128  0.53247189     0.16700
H115        H  0.94689255  0.51801339  0.49363027     0.16700
H116        H  0.83196767  0.52326265  0.36323371     0.16800
H117        H  0.94363273  0.46145858  0.39421541     0.16700
C118        C  0.74250053  0.79238379  0.20124901     0.87100
C119        C  0.71577870  0.76383923  0.18452339    -0.53200
C120        C  0.69306828  0.74774997  0.20815490     0.10000
C121        C  0.69936757  0.76141663  0.24632622     0.20900
C122        C  0.71760675  0.81894852  0.22234530    -0.53900
C123        C  0.69507538  0.80262620  0.24568868     0.10100
C124        C  0.76293002  0.77177861  0.23003633    -0.53400
C125        C  0.74049397  0.75507103  0.25290501     0.10700
H126        H  0.71507619  0.75692627  0.15643975     0.15200
H127        H  0.68094998  0.74890069  0.26574597     0.00900
H128        H  0.71764678  0.84798434  0.21899541     0.15500
H129        H  0.79243866  0.76909482  0.23294578     0.15300
C130        C  0.73851307  0.17354006  0.68734563     0.87100
C131        C  0.71461071  0.14783424  0.66386178    -0.53200
C132        C  0.68967882  0.16487457  0.64296368     0.10000
C133        C  0.69176507  0.20656319  0.64717509     0.20900
C134        C  0.75654819  0.19912151  0.66116978    -0.53900
C135        C  0.73221046  0.21572541  0.64007012     0.10100
C136        C  0.71089052  0.19825914  0.70769188    -0.53400
C137        C  0.68640071  0.21553956  0.68673246     0.10700
H138        H  0.71879243  0.11879460  0.66286616     0.15200
H139        H  0.67212914  0.22136719  0.63059121     0.00900
H140        H  0.78550272  0.20585070  0.65961516     0.15500
H141        H  0.71192940  0.20306028  0.73609817     0.15300
C142        C  0.45007383  0.86949935  0.47478490     0.30600
C143        C  0.51089432  0.87338219  0.43179835     0.30600
C144        C  0.45233386  0.84155301  0.44391049    -0.05600
C145        C  0.45457487  0.90596144  0.45571531    -0.06400
C146        C  0.48830475  0.86648478  0.49279864    -0.06300
C147        C  0.48318360  0.84339217  0.42258574    -0.05600
C148        C  0.48593777  0.90759924  0.43356528    -0.06400
C149        C  0.51904688  0.86827068  0.47110308    -0.06300
C150        C  0.47443121  0.82664043  0.39065995    -0.31700
N151        N  0.43906924  0.81513143  0.39163454     0.14800
C152        C  0.42509573  0.82446407  0.42377760    -0.31700
H153        H  0.39621968  0.82243604  0.43072491     0.16800
C154        C  0.49159026  0.94370600  0.42680301    -0.30700
N155        N  0.46400645  0.96353053  0.44145328     0.13600
C156        C  0.44295186  0.94168301  0.46120391    -0.30600
C157        C  0.54938373  0.85963000  0.49127015    -0.30900
N158        N  0.53788265  0.85198619  0.52425482     0.14100
H159        H  0.57729188  0.85592888  0.48174566     0.16700
C160        C  0.50080386  0.85693386  0.52557926    -0.30900
H161        H  0.48387253  0.85143010  0.54819953     0.16700
H162        H  0.42328125  0.95172244  0.48055091     0.16700
H163        H  0.49154620  0.82593866  0.36729585     0.16800
H164        H  0.51570246  0.95572823  0.41529894     0.16700
C165        C  0.23475930  0.73606521  0.14707438     0.87100
C166        C  0.21518171  0.70999702  0.17172948    -0.53200
C167        C  0.23789857  0.68501272  0.18648018     0.10000
C168        C  0.27830376  0.68850662  0.17459855     0.20900
C169        C  0.26604264  0.75253006  0.17029873    -0.53900
C170        C  0.28827191  0.72773438  0.18481678     0.10100
C171        C  0.25471066  0.71139429  0.11978015    -0.53400
C172        C  0.27712742  0.68613009  0.13397897     0.10700
H173        H  0.18603243  0.71227893  0.17797810     0.15200
H174        H  0.29787748  0.66911868  0.18562683     0.00900
H175        H  0.26920540  0.78063613  0.17856969     0.15500
H176        H  0.25076065  0.71341778  0.09156248     0.15300
C177        C  0.75938309  0.71662220  0.72289928     0.87100
C178        C  0.78139675  0.69220444  0.69717451    -0.53200
C179        C  0.76033864  0.67030056  0.67554868     0.10000
C180        C  0.71816186  0.67431379  0.68186542     0.20900
C181        C  0.73200634  0.73671825  0.69992693    -0.53900
C182        C  0.70999953  0.71517495  0.67853733     0.10100
C183        C  0.73473940  0.69000816  0.74272483    -0.53400
C184        C  0.71283180  0.66815629  0.72155977     0.10700
H185        H  0.81135555  0.69232991  0.69599035     0.15200
H186        H  0.70074709  0.65632474  0.66473910     0.00900
H187        H  0.72992877  0.76604846  0.70111018     0.15500
H188        H  0.73314453  0.68833420  0.77099956     0.15300
C189        C  0.51976376  0.46181509  0.05648416     0.30600
C190        C  0.46185666  0.50920209  0.05169469     0.30600
C191        C  0.52172670  0.49649745  0.08078983    -0.05600
C192        C  0.51276791  0.47717603  0.01974012    -0.06400
C193        C  0.48137846  0.44694939  0.06706660    -0.06300
C194        C  0.49219769  0.52032351  0.07832339    -0.05600
C195        C  0.48350866  0.50127838  0.01792010    -0.06400
C196        C  0.45166677  0.47105367  0.06409103    -0.06300
C197        C  0.49957643  0.54987238  0.10044387    -0.31700
N198        N  0.53331686  0.54563858  0.11509158     0.14800
C199        C  0.54621939  0.51242620  0.10472660    -0.31700
H200        H  0.57216841  0.50145208  0.11333461     0.16800
C201        C  0.47931519  0.51040666  0.98346637    -0.30700
N202        N  0.50536139  0.49288868  0.96389574     0.13600
C203        C  0.52564191  0.47189424  0.98542846    -0.30600
C204        C  0.42486567  0.45991713  0.08735061    -0.30900
N205        N  0.43584593  0.42939456  0.10288025     0.14100
H206        H  0.39984018  0.47435776  0.09423989     0.16700
C207        C  0.47104400  0.42273365  0.09237777    -0.30900
H208        H  0.48902497  0.40340898  0.10436765     0.16700
H209        H  0.54641351  0.45265563  0.97652287     0.16700
H210        H  0.48283122  0.57391860  0.10394436     0.16800
H211        H  0.45739966  0.52664021  0.97292098     0.16700
C212        C  0.51408412  0.51064742  0.83021492     0.30600
C213        C  0.45637400  0.46410999  0.84189132     0.30600
C214        C  0.51653443  0.47251216  0.81261202    -0.05600
C215        C  0.50785680  0.50112181  0.86960395    -0.06400
C216        C  0.47524267  0.52375934  0.81957524    -0.06300
C217        C  0.48700976  0.44936749  0.81741650    -0.05600
C218        C  0.47814589  0.47731575  0.87465555    -0.06400
C219        C  0.44624156  0.49964329  0.82414082    -0.06300
C220        C  0.49584142  0.41674263  0.80052881    -0.31700
N221        N  0.53045552  0.41913485  0.78722448     0.14800
C222        C  0.54344574  0.45299332  0.79474889    -0.31700
H223        H  0.57084177  0.46245794  0.78842029     0.16800
C224        C  0.47582427  0.47053338  0.90981731    -0.30700
N225        N  0.50324785  0.48879354  0.92689034     0.13600
C226        C  0.52257679  0.50814913  0.90329512    -0.30600
C227        C  0.41744786  0.51139890  0.80337160    -0.30900
N228        N  0.42695659  0.54313209  0.78924426     0.14100
H229        H  0.39196919  0.49729358  0.79717462     0.16700
C230        C  0.46194644  0.55134109  0.79947221    -0.30900
H231        H  0.47751214  0.57420230  0.79047787     0.16700
H232        H  0.54462744  0.52650919  0.91085769     0.16700
H233        H  0.47931622  0.39233348  0.79959205     0.16800
H234        H  0.45522568  0.45417728  0.92233521     0.16700
C235        C  0.07234047  0.91722555  0.02759361     0.43000
N236        N  0.03456479  0.92874564  0.98605559     0.01900
C237        C  0.02989452  0.07479288  0.87853562    -0.06000
H238        H  0.01357106  0.10909481  0.01125955     0.07400
C239        C  0.89635822  0.03409396  0.01055439    -0.06300
Co240      Co  0.05664120  0.99332310  0.94632430     0.74200
N241        N  0.02560977  0.05942029  0.98220992    -0.25500
Co242      Co  0.98434885  0.05417121  0.94409037     0.74100
C243        C  0.90881353  0.06886188  0.02663123     0.43100
N244        N  0.92573377  0.94636107  0.98561863     0.01500
N245        N  0.94400938  0.05352712  0.98294855     0.01600
N246        N  0.07702727  0.03518324  0.88119306    -0.46300
H247        H  0.10767035  0.96744511  0.01621261     0.07400
N248        N  0.05302589  0.03610432  0.98348530     0.01900
N249        N  0.94324660  0.04722891  0.90585373     0.01700
C250        C  0.90682844  0.05408849  0.86207650     0.43300
N251        N  0.95283210  0.92259134  0.98596207    -0.24900
C252        C  0.08270342  0.94594621  0.88217062    -0.05900
N253        N  0.04177869  0.90533853  0.01049308    -0.46100
N254        N  0.93624678  0.06860175  0.87950349    -0.46300
C255        C  0.07236919  0.91118242  0.86532654     0.43000
N256        N  0.05272629  0.03029905  0.90652614     0.01900
N257        N  0.95405597  0.91787725  0.90935871    -0.25000
N258        N  0.05848291  0.95565591  0.98582555    -0.25500
N259        N  0.92531063  0.93966114  0.90914877     0.01500
H260        H  0.96855156  0.86929428  0.87994218     0.07400
H261        H  0.87266447  0.00388447  0.87560238     0.07500
N262        N  0.02493753  0.05314838  0.90555158    -0.25500
N263        N  0.91997998  0.02672086  0.98394013    -0.25100
N264        N  0.03579337  0.92352116  0.90890362     0.01900
C265        C  0.06593206  0.07653891  0.02373949     0.43300
C266        C  0.94595699  0.89939200  0.01147943    -0.06400
N267        N  0.91992617  0.01988008  0.90688524    -0.25100
H268        H  0.87292418  0.01759319  0.01726716     0.07500
N269        N  0.07779261  0.04527873  0.00799393    -0.46300
H270        H  0.96264483  0.87617646  0.01732456     0.07400
C271        C  0.91318440  0.89763997  0.86990729     0.43100
C272        C  0.08335516  0.95093762  0.01141315    -0.05900
Co273      Co  0.99441249  0.92243899  0.94757659     0.73800
N274        N  0.90025210  0.94082573  0.00963013    -0.46100
C275        C  0.06439102  0.06256125  0.86198335     0.43400
N276        N  0.04278409  0.89896504  0.88323568    -0.46100
Co277      Co  0.92187064  0.98319997  0.94643054     0.73900
C278        C  0.89598311  0.02176953  0.88024477    -0.06400
C279        C  0.03121065  0.08587124  0.00676847    -0.05900
N280        N  0.05900178  0.95099357  0.90884548    -0.25500
N281        N  0.93823314  0.07917949  0.00769502    -0.46200
H282        H  0.01316448  0.09817589  0.87344751     0.07400
C283        C  0.94944579  0.89128729  0.88497236    -0.06400
Cl284      Cl  0.98930622  0.98827867  0.94620389    -0.49400
C285        C  0.91091106  0.91163872  0.02704693     0.43200
H286        H  0.10385900  0.96495743  0.87519490     0.07400
N287        N  0.89990612  0.92838352  0.88591552    -0.46100
C288        C  0.84298912  0.86020169  0.80385331    -0.01400
C289        C  0.84820807  0.82249868  0.80573617     0.07200
C290        C  0.87473102  0.80959844  0.82891274    -0.07400
C291        C  0.89529556  0.83328125  0.85079010     0.04600
C292        C  0.89077514  0.87121282  0.84853777    -0.14600
C293        C  0.86429693  0.88418201  0.82513502    -0.08000
C294        C  0.82543152  0.79566770  0.78510616     0.05500
C295        C  0.82663865  0.79482555  0.74823785    -0.09100
C296        C  0.80625782  0.76917235  0.72810089     0.00500
C297        C  0.78382020  0.74327451  0.74482444     0.00400
C298        C  0.78365148  0.74406160  0.78205831    -0.12600
C299        C  0.80382912  0.76986248  0.80199586     0.00800
C300        C  0.80880139  0.77051324  0.69019292     0.40200
C301        C  0.80116281  0.76977767  0.83999410     0.36800
C302        C  0.81531261  0.87484589  0.78107749     0.36500
C303        C  0.91864529  0.81729736  0.87678630     0.37300
N304        N  0.81094628  0.77181119  0.65985568    -0.43500
N305        N  0.79914333  0.76966030  0.87041553    -0.44000
N306        N  0.93700741  0.80404192  0.89763382    -0.41300
N307        N  0.79313048  0.88660244  0.76281802    -0.42800
H308        H  0.86029323  0.91312442  0.82341490     0.13400
H309        H  0.87864510  0.78062537  0.83061251     0.09900
H310        H  0.84376896  0.81424058  0.73511705     0.11000
H311        H  0.76772108  0.72518508  0.79657601     0.16800
C312        C  0.63632386  0.63876726  0.78266755    -0.01400
C313        C  0.63060727  0.60220469  0.77191124     0.07200
C314        C  0.65070069  0.58783167  0.74292132    -0.07400
C315        C  0.67669754  0.60875005  0.72533386     0.04600
C316        C  0.68357446  0.64491203  0.73703695    -0.14600
C317        C  0.66264875  0.65950914  0.76546849    -0.08000
C318        C  0.60177856  0.57923558  0.78825674     0.05500
C319        C  0.57495465  0.56329230  0.76617438    -0.09100
C320        C  0.54773316  0.54074554  0.77924742     0.00500
C321        C  0.54510684  0.53493961  0.81621938     0.00400
C322        C  0.57264229  0.55056215  0.83820861    -0.12600
C323        C  0.60116552  0.57180192  0.82450353     0.00800
C324        C  0.52371871  0.52305119  0.75327329     0.40200
C325        C  0.63066563  0.58387381  0.84776309     0.36800
C326        C  0.61478457  0.65608363  0.81050313     0.36500
C327        C  0.69593444  0.59187034  0.69582710     0.37300
N328        N  0.50466270  0.50878731  0.73246759    -0.43500
N329        N  0.65445784  0.59343705  0.86630408    -0.44000
N330        N  0.71037788  0.57754831  0.67196310    -0.41300
N331        N  0.59772542  0.66996108  0.83295862    -0.42800
H332        H  0.66656827  0.68757891  0.77412978     0.13400
H333        H  0.64600365  0.55996197  0.73393970     0.09900
H334        H  0.57564371  0.56804810  0.73814971     0.11000
H335        H  0.57310007  0.54546014  0.86583285     0.16800
C336        C  0.10031738  0.84442802  0.08872676    -0.01400
C337        C  0.13733902  0.83835332  0.07910253     0.07200
C338        C  0.15340725  0.85889752  0.05294386    -0.07400
C339        C  0.13324768  0.88555692  0.03642422     0.04600
C340        C  0.09616549  0.89199107  0.04622828    -0.14600
C341        C  0.07996739  0.87099427  0.07209788    -0.08000
C342        C  0.16084039  0.81252446  0.09754157     0.05500
C343        C  0.15513771  0.77520371  0.09245321    -0.09100
C344        C  0.17838109  0.75038763  0.10848875     0.00500
C345        C  0.20831154  0.76284739  0.13010170     0.00400
C346        C  0.21324949  0.80069712  0.13491272    -0.12600
C347        C  0.18983704  0.82518512  0.11924871     0.00800
C348        C  0.17108577  0.71228173  0.10178326     0.40200
C349        C  0.19593051  0.86349509  0.12617606     0.36800
C350        C  0.08308818  0.82433571  0.11610262     0.36500
C351        C  0.15086801  0.90435282  0.00838738     0.37300
N352        N  0.16527905  0.68175707  0.09637815    -0.43500
N353        N  0.20071467  0.89415643  0.13174950    -0.44000
N354        N  0.16506049  0.91929435  0.98586340    -0.41300
N355        N  0.06946091  0.80817548  0.13810426    -0.42800
H356        H  0.05132922  0.87541755  0.07933028     0.13400
H357        H  0.18191082  0.85402366  0.04547255     0.09900
H358        H  0.13274027  0.76547659  0.07555812     0.11000
H359        H  0.23531899  0.81243846  0.15044297     0.16800
C360        C  0.36455307  0.54923790  0.04904300    -0.01400
C361        C  0.37217371  0.58639201  0.05521188     0.07200
C362        C  0.40841871  0.59869739  0.05047938    -0.07400
C363        C  0.43726664  0.57410820  0.04448031     0.04600
C364        C  0.43056114  0.53649726  0.04712033    -0.14600
C365        C  0.39365964  0.52470893  0.04491949    -0.08000
C366        C  0.34448685  0.61121672  0.07202390     0.05500
C367        C  0.32738659  0.60025810  0.10294826    -0.09100
C368        C  0.30399912  0.62333138  0.12237489     0.00500
C369        C  0.29874948  0.65930466  0.11209691     0.00400
C370        C  0.31505950  0.67003475  0.08049465    -0.12600
C371        C  0.33729528  0.64620003  0.06021527     0.00800
C372        C  0.28502512  0.60834571  0.15184642     0.40200
C373        C  0.35186244  0.65803495  0.02722685     0.36800
C374        C  0.32717626  0.53558205  0.04783092     0.36500
C375        C  0.47321202  0.58836336  0.03611397     0.37300
N376        N  0.27024024  0.59543041  0.17523990    -0.43500
N377        N  0.36340212  0.66746532  0.00070605    -0.44000
N378        N  0.50192911  0.59997594  0.02941699    -0.41300
N379        N  0.29724132  0.52460844  0.04681967    -0.42800
H380        H  0.38727598  0.49630164  0.04044863     0.13400
H381        H  0.41464202  0.62736660  0.05322717     0.09900
H382        H  0.33274909  0.57345942  0.11238170     0.11000
H383        H  0.31101595  0.69731758  0.07182568     0.16800
C384        C  0.56584686  0.78192040  0.58827210    -0.01400
C385        C  0.60247390  0.79224613  0.59619916     0.07200
C386        C  0.61672384  0.82390375  0.58212154    -0.07400
C387        C  0.59550717  0.84447447  0.55932588     0.04600
C388        C  0.55932992  0.83340999  0.55012232    -0.14600
C389        C  0.54464338  0.80242117  0.56541669    -0.08000
C390        C  0.62673664  0.77017904  0.61857361     0.05500
C391        C  0.64362079  0.73896424  0.60381858    -0.09100
C392        C  0.66952541  0.71938826  0.62303971     0.00500
C393        C  0.67915557  0.73126641  0.65780963     0.00400
C394        C  0.66014944  0.76128661  0.67305763    -0.12600
C395        C  0.63449556  0.78076600  0.65381393     0.00800
C396        C  0.68633292  0.68816370  0.60572389     0.40200
C397        C  0.61661156  0.81168741  0.67075183     0.36800
C398        C  0.54954957  0.75044038  0.60336761     0.36500
C399        C  0.61106878  0.87726564  0.54631080     0.37300
N400        N  0.69911846  0.66290161  0.59151192    -0.43500
N401        N  0.60228542  0.83639200  0.68447610    -0.44000
N402        N  0.62346837  0.90363239  0.53588269    -0.41300
N403        N  0.53651407  0.72527810  0.61562737    -0.42800
H404        H  0.51685794  0.79362435  0.55870708     0.13400
H405        H  0.64467666  0.83233078  0.58869561     0.09900
H406        H  0.63724490  0.73044180  0.57679764     0.11000
H407        H  0.66568979  0.77003846  0.70017019     0.16800
C408        C  0.37626428  0.75498069  0.33730773    -0.01400
C409        C  0.37864198  0.77072026  0.30413858     0.07200
C410        C  0.40013985  0.80183771  0.30041760    -0.07400
C411        C  0.41944079  0.81729563  0.32912462     0.04600
C412        C  0.41835823  0.80075326  0.36199476    -0.14600
C413        C  0.39642939  0.76988371  0.36585577    -0.08000
C414        C  0.35614012  0.75751229  0.27378186     0.05500
C415        C  0.31777567  0.76111489  0.27604425    -0.09100
C416        C  0.29532152  0.75135586  0.24735726     0.00500
C417        C  0.31142169  0.73779494  0.21561568     0.00400
C418        C  0.34972106  0.73355898  0.21342895    -0.12600
C419        C  0.37225243  0.74357967  0.24222998     0.00800
C420        C  0.25580778  0.75452099  0.25153343     0.40200
C421        C  0.41168299  0.73924866  0.23890016     0.36800
C422        C  0.35302621  0.72390438  0.34267913     0.36500
C423        C  0.43787555  0.85149271  0.32487241     0.37300
N424        N  0.22417410  0.75697573  0.25498748    -0.43500
N425        N  0.44329295  0.73582473  0.23611465    -0.44000
N426        N  0.45245720  0.87904365  0.32165585    -0.41300
N427        N  0.33407660  0.69924301  0.34699621    -0.42800
H428        H  0.39512688  0.75753086  0.39124469     0.13400
H429        H  0.40070234  0.81481698  0.27529633     0.09900
H430        H  0.30540183  0.77198008  0.30023194     0.11000
H431        H  0.36196077  0.72281383  0.18914444     0.16800
C432        C  0.82788177  0.13868566  0.73035255    -0.01400
C433        C  0.81388726  0.11915834  0.75835319     0.07200
C434        C  0.77563901  0.11574915  0.76219282    -0.07400
C435        C  0.75127220  0.13201143  0.73896858     0.04600
C436        C  0.76494305  0.15344686  0.71161644    -0.14600
C437        C  0.80369546  0.15528148  0.70733977    -0.08000
C438        C  0.83878766  0.10202552  0.78380500     0.05500
C439        C  0.86311393  0.12393794  0.80410399    -0.09100
C440        C  0.88668254  0.10897273  0.82883648     0.00500
C441        C  0.88538967  0.07135494  0.83415069     0.00400
C442        C  0.86159216  0.04944187  0.81316611    -0.12600
C443        C  0.83857758  0.06435794  0.78805293     0.00800
C444        C  0.91102788  0.13310272  0.84877553     0.40200
C445        C  0.81562445  0.04035013  0.76644677     0.36800
C446        C  0.86711283  0.14124627  0.72404947     0.36500
C447        C  0.71240980  0.12534106  0.74369644     0.37300
N448        N  0.93061758  0.15252358  0.86457895    -0.43500
N449        N  0.79731838  0.02104297  0.74912509    -0.44000
N450        N  0.68146217  0.11913396  0.74781861    -0.41300
N451        N  0.89852952  0.14330475  0.71906101    -0.42800
H452        H  0.81617596  0.16867375  0.68574705     0.13400
H453        H  0.76475639  0.10021182  0.78349277     0.09900
H454        H  0.86343180  0.15294193  0.80077727     0.11000
H455        H  0.86098691  0.02041958  0.81620508     0.16800
C456        C  0.63828710  0.30634864  0.69726632    -0.01400
C457        C  0.61644915  0.30179998  0.72740473     0.07200
C458        C  0.61580881  0.26818610  0.74306482    -0.07400
C459        C  0.63727623  0.23934420  0.72959637     0.04600
C460        C  0.66067408  0.24423011  0.70039059    -0.14600
C461        C  0.66031363  0.27774699  0.68412213    -0.08000
C462        C  0.59438500  0.33196675  0.74323073     0.05500
C463        C  0.55850553  0.33779263  0.73080721    -0.09100
C464        C  0.53713446  0.36643251  0.74488306     0.00500
C465        C  0.55166153  0.38961391  0.77196097     0.00400
C466        C  0.58762952  0.38369929  0.78429317    -0.12600
C467        C  0.60900667  0.35516832  0.77016990     0.00800
C468        C  0.50107651  0.37255623  0.73012805     0.40200
C469        C  0.64598999  0.35039678  0.78340561     0.36800
C470        C  0.63855591  0.34024184  0.67967300     0.36500
C471        C  0.63296354  0.20466990  0.74510280     0.37300
N472        N  0.47215618  0.37764873  0.71834833    -0.43500
N473        N  0.67566781  0.34666802  0.79395876    -0.44000
N474        N  0.62834134  0.17712355  0.75779683    -0.41300
N475        N  0.63843308  0.36744571  0.66563802    -0.42800
H476        H  0.67780777  0.28189619  0.66149880     0.13400
H477        H  0.59827025  0.26445018  0.76576794     0.09900
H478        H  0.54739074  0.32016496  0.70982188     0.11000
H479        H  0.59888190  0.40131209  0.80520729     0.16800
C480        C  0.82777508  0.82553181  0.15067274    -0.01400
C481        C  0.81157259  0.84404647  0.12311245     0.07200
C482        C  0.77306214  0.84640197  0.12106211    -0.07400
C483        C  0.75056414  0.83016528  0.14602753     0.04600
C484        C  0.76663771  0.81090730  0.17390169    -0.14600
C485        C  0.80559841  0.80940906  0.17549025    -0.08000
C486        C  0.83502497  0.86159965  0.09690807     0.05500
C487        C  0.85633233  0.83979450  0.07373144    -0.09100
C488        C  0.88174505  0.85518830  0.05098255     0.00500
C489        C  0.88607752  0.89319474  0.05137854     0.00400
C490        C  0.86409734  0.91493636  0.07413281    -0.12600
C491        C  0.83886268  0.89947583  0.09695059     0.00800
C492        C  0.90152260  0.83136092  0.02663220     0.40200
C493        C  0.81815140  0.92283585  0.12103570     0.36800
C494        C  0.86741634  0.82336411  0.15449171     0.36500
C495        C  0.71107328  0.83390048  0.14235116     0.37300
N496        N  0.91710962  0.81200784  0.00711664    -0.43500
N497        N  0.80153452  0.94143253  0.14043046    -0.44000
N498        N  0.67945352  0.83698850  0.13936353    -0.41300
N499        N  0.89912803  0.82156796  0.15758389    -0.42800
H500        H  0.82015148  0.79599860  0.19598441     0.13400
H501        H  0.76058192  0.86097679  0.09985576     0.09900
H502        H  0.85325976  0.81059402  0.07370491     0.11000
H503        H  0.86698841  0.94416347  0.07438886     0.16800
C504        C  0.61633544  0.69988041  0.15643111    -0.01400
C505        C  0.61205723  0.66789761  0.17484809     0.07200
C506        C  0.63278736  0.66284300  0.20521874    -0.07400
C507        C  0.65894042  0.68841510  0.21685105     0.04600
C508        C  0.66460171  0.72017264  0.19779299    -0.14600
C509        C  0.64246719  0.72576757  0.16798559    -0.08000
C510        C  0.59079250  0.63679532  0.16010243     0.05500
C511        C  0.60897462  0.61264871  0.13683997    -0.09100
C512        C  0.59101205  0.58204122  0.12251433     0.00500
C513        C  0.55408782  0.57467421  0.13220592     0.00400
C514        C  0.53606226  0.59894711  0.15595081    -0.12600
C515        C  0.55409510  0.62996130  0.16982969     0.00800
C516        C  0.61065644  0.56040285  0.09623954     0.40200
C517        C  0.53437147  0.65479746  0.19325981     0.36800
C518        C  0.59465047  0.70616881  0.12533956     0.36500
C519        C  0.68061562  0.67932869  0.24707887     0.37300
N520        N  0.62693789  0.54352050  0.07518062    -0.43500
N521        N  0.51856948  0.67487950  0.21188564    -0.44000
N522        N  0.69668379  0.67027582  0.27154525    -0.41300
N523        N  0.57704754  0.71107439  0.10051910    -0.42800
H524        H  0.64578130  0.75026286  0.15353063     0.13400
H525        H  0.62966566  0.63785782  0.21899471     0.09900
H526        H  0.63728835  0.61815545  0.12941206     0.11000
H527        H  0.50763206  0.59390923  0.16314026     0.16800
C528        C  0.60682109  0.82421310  0.29347771    -0.01400
C529        C  0.61926505  0.84835749  0.32065260     0.07200
C530        C  0.65571173  0.86101471  0.32055950    -0.07400
C531        C  0.68048494  0.84830353  0.29470057     0.04600
C532        C  0.66871999  0.82211378  0.26900951    -0.14600
C533        C  0.63172667  0.81093885  0.26811487    -0.08000
C534        C  0.59531606  0.85801770  0.35089904     0.05500
C535        C  0.59207527  0.83341850  0.37764815    -0.09100
C536        C  0.56607862  0.83859624  0.40449356     0.00500
C537        C  0.54350583  0.87018832  0.40599677     0.00400
C538        C  0.54683263  0.89424688  0.37818634    -0.12600
C539        C  0.57273343  0.88871347  0.35125024     0.00800
C540        C  0.56007628  0.80847576  0.42694285     0.40200
C541        C  0.57400866  0.91351919  0.32285341     0.36800
C542        C  0.56886309  0.81218312  0.29168698     0.36500
C543        C  0.71824352  0.86077640  0.29634854     0.37300
N544        N  0.55510133  0.78402499  0.44444925    -0.43500
N545        N  0.57514210  0.93327330  0.30000532    -0.44000
N546        N  0.74850285  0.87083937  0.29745624    -0.41300
N547        N  0.53837757  0.80281816  0.29018467    -0.42800
H548        H  0.62257215  0.79108666  0.24810289     0.13400
H549        H  0.66507712  0.87980654  0.34140163     0.09900
H550        H  0.60847608  0.80886675  0.37628946     0.11000
H551        H  0.52720428  0.91553811  0.37487503     0.16800
C552        C  0.86776514  0.56850438  0.56383282    -0.01400
C553        C  0.83026762  0.57283479  0.57300169     0.07200
C554        C  0.80358802  0.55367101  0.55351682    -0.07400
C555        C  0.81313245  0.53141176  0.52446973     0.04600
C556        C  0.85092003  0.52696387  0.51414568    -0.14600
C557        C  0.87784089  0.54554938  0.53476589    -0.08000
C558        C  0.81687768  0.59867772  0.60118818     0.05500
C559        C  0.80849357  0.63422288  0.59231355    -0.09100
C560        C  0.78950516  0.65766470  0.61594815     0.00500
C561        C  0.77806907  0.64545257  0.64893651     0.00400
C562        C  0.78780314  0.61043317  0.65838421    -0.12600
C563        C  0.80652804  0.58686258  0.63463864     0.00800
C564        C  0.78196231  0.69410430  0.60576706     0.40200
C565        C  0.81433225  0.55047764  0.64481828     0.36800
C566        C  0.89619268  0.58783916  0.58351464     0.36500
C567        C  0.78267250  0.51499081  0.50487454     0.37300
N568        N  0.77584223  0.72326745  0.59748767    -0.43500
N569        N  0.82057898  0.52128298  0.65293198    -0.44000
N570        N  0.75818712  0.50195321  0.48933446    -0.41300
N571        N  0.91903793  0.60331827  0.59929491    -0.42800
H572        H  0.90652999  0.54346106  0.52790524     0.13400
H573        H  0.77470863  0.55714203  0.56043341     0.09900
H574        H  0.81592300  0.64332165  0.56645637     0.11000
H575        H  0.78071511  0.60149191  0.68437326     0.16800
C576        C  0.76210542  0.35924637  0.54780767    -0.01400
C577        C  0.78094984  0.32585865  0.54756116     0.07200
C578        C  0.81121831  0.32026899  0.52496580    -0.07400
C579        C  0.82394866  0.34809297  0.50413979     0.04600
C580        C  0.80635558  0.38208702  0.50604521    -0.14600
C581        C  0.77526253  0.38715681  0.52752787    -0.08000
C582        C  0.77000208  0.29702763  0.57148235     0.05500
C583        C  0.75985052  0.26281753  0.55719434    -0.09100
C584        C  0.74795942  0.23558536  0.57912741     0.00500
C585        C  0.74441748  0.24321493  0.61564787     0.00400
C586        C  0.75606621  0.27676859  0.63006285    -0.12600
C587        C  0.76975736  0.30328465  0.60843978     0.00800
C588        C  0.74209411  0.19961044  0.56392542     0.40200
C589        C  0.78501060  0.33595511  0.62485227     0.36800
C590        C  0.72920794  0.36541355  0.56863019     0.36500
C591        C  0.85623672  0.34189163  0.48256663     0.37300
N592        N  0.73813297  0.17073471  0.55152214    -0.43500
N593        N  0.79750018  0.36200253  0.63800867    -0.44000
N594        N  0.88208252  0.33696119  0.46517556    -0.41300
N595        N  0.70296493  0.37017683  0.58550353    -0.42800
H596        H  0.76145682  0.41317018  0.52852537     0.13400
H597        H  0.82558675  0.29454867  0.52445041     0.09900
H598        H  0.76155652  0.25732522  0.52895250     0.11000
H599        H  0.75525638  0.28188250  0.65841134     0.16800
C600        C  0.82655879  0.64809324  0.36251180    -0.11900
C601        C  0.78939686  0.65080133  0.35178494     0.07200
C602        C  0.76384314  0.62442686  0.36139517    -0.07400
C603        C  0.77522865  0.59498981  0.38065101     0.04600
C604        C  0.81243788  0.59197519  0.39065520    -0.14600
C605        C  0.83778580  0.61878254  0.38205488    -0.08000
C606        C  0.77757121  0.67887185  0.32759258     0.05500
C607        C  0.79065909  0.67660993  0.29293394    -0.09100
C608        C  0.77968433  0.70162424  0.26851573     0.00500
C609        C  0.75476346  0.72958798  0.27874127     0.00400
C610        C  0.74179584  0.73195665  0.31358148    -0.12600
C611        C  0.75321523  0.70692265  0.33810506     0.00800
C612        C  0.79322352  0.69676874  0.23284311     0.40200
C613        C  0.74041336  0.71088822  0.37402329     0.36800
C614        C  0.85355680  0.67483313  0.35322757     0.36500
C615        C  0.74873550  0.56761460  0.38946840     0.37300
N616        N  0.80439385  0.69308895  0.20437531    -0.43500
N617        N  0.73045631  0.71409772  0.40292958    -0.44000
N618        N  0.72772575  0.54549714  0.39667821    -0.41300
N619        N  0.87500092  0.69637308  0.34558942    -0.42800
H620        H  0.86643104  0.61617356  0.38982652     0.13400
H621        H  0.73534280  0.62626114  0.35286669     0.09900
H622        H  0.80917425  0.65479909  0.28483233     0.11000
H623        H  0.72280046  0.75337039  0.32159704     0.16800
C624        C  0.17957222  0.18250215  0.81006918    -0.01400
C625        C  0.16004281  0.15773654  0.78791149     0.07200
C626        C  0.16253225  0.16035637  0.75133003    -0.07400
C627        C  0.18513103  0.18652568  0.73656929     0.04600
C628        C  0.20642443  0.21062921  0.75865411    -0.14600
C629        C  0.20221821  0.20850522  0.79550940    -0.08000
C630        C  0.13597257  0.12981315  0.80279499     0.05500
C631        C  0.09773639  0.13170387  0.79757617    -0.09100
C632        C  0.07380364  0.10859358  0.81493500     0.00500
C633        C  0.08823163  0.08373980  0.83873240     0.00400
C634        C  0.12671518  0.08010838  0.84166485    -0.12600
C635        C  0.15055227  0.10263692  0.82369525     0.00800
C636        C  0.03487125  0.11041580  0.80704393     0.40200
C637        C  0.18989175  0.09762954  0.82724887     0.36800
C638        C  0.17595252  0.18258353  0.84801426     0.36500
C639        C  0.18537432  0.18819644  0.69860250     0.37300
N640        N  0.00372446  0.11178808  0.80040288    -0.43500
N641        N  0.22142835  0.09367834  0.82995048    -0.44000
N642        N  0.18563950  0.18949185  0.66818712    -0.41300
N643        N  0.17325055  0.18266744  0.87839610    -0.42800
H644        H  0.21519674  0.22759952  0.81377919     0.13400
H645        H  0.14674976  0.14182582  0.73424975     0.09900
H646        H  0.08654540  0.15183712  0.78053041     0.11000
H647        H  0.13836003  0.06036703  0.85885320     0.16800
C648        C  0.36072721  0.42269556  0.83759479    -0.01400
C649        C  0.36991907  0.38565766  0.83569420     0.07200
C650        C  0.40461910  0.37488899  0.84782298    -0.07400
C651        C  0.43192192  0.40073343  0.85597467     0.04600
C652        C  0.42509695  0.43750891  0.84930411    -0.14600
C653        C  0.38806406  0.44815439  0.84631926    -0.08000
C654        C  0.34628786  0.35877374  0.81654889     0.05500
C655        C  0.35996690  0.34248872  0.78518432    -0.09100
C656        C  0.33810849  0.31879259  0.76444449     0.00500
C657        C  0.30139190  0.31202247  0.77454239     0.00400
C658        C  0.28807674  0.32768344  0.80645094    -0.12600
C659        C  0.31041506  0.35038593  0.82775602     0.00800
C660        C  0.35487117  0.30027848  0.73433359     0.40200
C661        C  0.29642149  0.36393423  0.86134148     0.36800
C662        C  0.32479457  0.43557423  0.82741971     0.36500
C663        C  0.46678543  0.38867193  0.86970569     0.37300
N664        N  0.36888563  0.28534326  0.71055914    -0.43500
N665        N  0.28535709  0.37472158  0.88834615    -0.44000
N666        N  0.49469414  0.37894085  0.88072694    -0.41300
N667        N  0.29605683  0.44602827  0.81927584    -0.42800
H668        H  0.38057168  0.47638478  0.84889585     0.13400
H669        H  0.41100947  0.34630988  0.84890192     0.09900
H670        H  0.38790865  0.34838187  0.77687855     0.11000
H671        H  0.26011697  0.32207663  0.81483078     0.16800
C672        C  0.82992793  0.11422591  0.07698925    -0.01400
C673        C  0.84772810  0.14385590  0.09448741     0.07200
C674        C  0.88621347  0.14675744  0.09235542    -0.07400
C675        C  0.90679265  0.12180414  0.07162850     0.04600
C676        C  0.88871304  0.09340512  0.05212107    -0.14600
C677        C  0.85035780  0.08947602  0.05596644    -0.08000
C678        C  0.82635126  0.17307037  0.11335102     0.05500
C679        C  0.82890201  0.17781699  0.15009675    -0.09100
C680        C  0.80768354  0.20417305  0.16853783     0.00500
C681        C  0.78318725  0.22691803  0.15016089     0.00400
C682        C  0.78158402  0.22195486  0.11301842    -0.12600
C683        C  0.80303525  0.19598447  0.09481220     0.00800
C684        C  0.81146661  0.20684411  0.20645664     0.40200
C685        C  0.80076255  0.19358611  0.05675976     0.36800
C686        C  0.79061641  0.10882350  0.08015961     0.36500
C687        C  0.94645769  0.12562146  0.07172314     0.37300
N688        N  0.81471467  0.20914313  0.23681197    -0.43500
N689        N  0.79887642  0.19183833  0.02629710    -0.44000
N690        N  0.97822939  0.12884483  0.07243378    -0.41300
N691        N  0.75911272  0.10456323  0.08282265    -0.42800
H692        H  0.83598834  0.06763893  0.04178305     0.13400
H693        H  0.90013726  0.16903742  0.10636427     0.09900
H694        H  0.84708989  0.16041293  0.16449880     0.11000
H695        H  0.76318857  0.23726281  0.09718766     0.16800
C696        C  0.61663492  0.42823641  0.07896394    -0.01400
C697        C  0.60973101  0.39144219  0.08542107     0.07200
C698        C  0.57635167  0.37615914  0.07278207    -0.07400
C699        C  0.54900363  0.39767326  0.05785944     0.04600
C700        C  0.55287181  0.43577266  0.05892672    -0.14600
C701        C  0.58855191  0.44973377  0.06521887    -0.08000
C702        C  0.63637087  0.36886658  0.10555641     0.05500
C703        C  0.64969654  0.38175366  0.13869532    -0.09100
C704        C  0.67413277  0.36120851  0.15874358     0.00500
C705        C  0.68431037  0.32590916  0.14675315     0.00400
C706        C  0.67008742  0.31288340  0.11390071    -0.12600
C707        C  0.64770000  0.33423031  0.09295855     0.00800
C708        C  0.68978915  0.37803037  0.19031910     0.40200
C709        C  0.63853309  0.32060091  0.05779063     0.36800
C710        C  0.65218556  0.44461797  0.08625096     0.36500
C711        C  0.51899654  0.37993193  0.03894861     0.37300
N712        N  0.70244828  0.39180250  0.21549160    -0.43500
N713        N  0.63152300  0.30978459  0.02951033    -0.44000
N714        N  0.49525094  0.36596981  0.02309210    -0.41300
N715        N  0.68067864  0.45778027  0.09205956    -0.42800
H716        H  0.59412975  0.47792439  0.06076659     0.13400
H717        H  0.57125770  0.34744372  0.07493468     0.09900
H718        H  0.64130091  0.40830192  0.14886070     0.11000
H719        H  0.67688143  0.28583262  0.10394575     0.16800
C720        C  0.77533959  0.34866209  0.30497688    -0.01400
C721        C  0.80632538  0.37072737  0.29844405     0.07200
C722        C  0.81970411  0.37209324  0.26392530    -0.07400
C723        C  0.80294305  0.35183934  0.23614341     0.04600
C724        C  0.77216836  0.32937601  0.24263146    -0.14600
C725        C  0.75848475  0.32838618  0.27717433    -0.08000
C726        C  0.82206299  0.39592877  0.32637324     0.05500
C727        C  0.85613189  0.38884659  0.34254907    -0.09100
C728        C  0.86996322  0.41160703  0.37047227     0.00500
C729        C  0.85053396  0.44344128  0.38151978     0.00400
C730        C  0.81558731  0.44877350  0.36561154    -0.12600
C731        C  0.80201679  0.42643799  0.33810555     0.00800
C732        C  0.90192036  0.39941787  0.38924068     0.40200
C733        C  0.76648988  0.43485476  0.32311479     0.36800
C734        C  0.76060786  0.34634824  0.34014466     0.36500
C735        C  0.81714047  0.35553577  0.20096175     0.37300
N736        N  0.92734242  0.38890870  0.40421264    -0.43500
N737        N  0.73800332  0.44161228  0.31125027    -0.44000
N738        N  0.82851771  0.35842619  0.17274698    -0.41300
N739        N  0.74895029  0.34468280  0.36840098    -0.42800
H740        H  0.73521269  0.31099689  0.28263243     0.13400
H741        H  0.84279118  0.38973852  0.25853369     0.09900
H742        H  0.87112280  0.36457187  0.33442777     0.11000
H743        H  0.79696831  0.46940922  0.37584152     0.16800
C744        C  0.54941461  0.10096211  0.55090439    -0.01400
C745        C  0.58678131  0.10068043  0.54081942     0.07200
C746        C  0.59596270  0.08913504  0.50630814    -0.07400
C747        C  0.56827168  0.08248739  0.48098483     0.04600
C748        C  0.53105935  0.09089384  0.48932877    -0.14600
C749        C  0.52201983  0.09495129  0.52532484    -0.08000
C750        C  0.61598168  0.11476515  0.56518968     0.05500
C751        C  0.62405447  0.09661896  0.59595900    -0.09100
C752        C  0.64815668  0.11176689  0.62156300     0.00500
C753        C  0.66498856  0.14586079  0.61636983     0.00400
C754        C  0.65721863  0.16329795  0.58493786    -0.12600
C755        C  0.63326080  0.14814186  0.55951463     0.00800
C756        C  0.65301291  0.09237283  0.65344240     0.40200
C757        C  0.62565142  0.16822229  0.52844375     0.36800
C758        C  0.53845713  0.10891920  0.58695118     0.36500
C759        C  0.57852032  0.06482415  0.44782881     0.37300
N760        N  0.65669445  0.07622535  0.67868895    -0.43500
N761        N  0.61964810  0.18437341  0.50359236    -0.44000
N762        N  0.58665973  0.05030965  0.42139002    -0.41300
N763        N  0.52976866  0.11511928  0.61589228    -0.42800
H764        H  0.49353227  0.09406142  0.53362821     0.13400
H765        H  0.62473442  0.08573441  0.49911699     0.09900
H766        H  0.61051384  0.07102231  0.60045885     0.11000
H767        H  0.66961421  0.18919809  0.57994764     0.16800
C768        C  0.34505783  0.19574953  0.64087818    -0.01400
C769        C  0.34638989  0.21584305  0.61022530     0.07200
C770        C  0.32857800  0.24921730  0.60970718    -0.07400
C771        C  0.30793114  0.26221110  0.63856369     0.04600
C772        C  0.30433304  0.24109449  0.66882625    -0.14600
C773        C  0.32420949  0.20843486  0.66977638    -0.08000
C774        C  0.36495700  0.20194949  0.57783396     0.05500
C775        C  0.34948844  0.17216232  0.55906336    -0.09100
C776        C  0.36680487  0.15734029  0.52893650     0.00500
C777        C  0.40029368  0.17238801  0.51743150     0.00400
C778        C  0.41488007  0.20307730  0.53543835    -0.12600
C779        C  0.39737360  0.21810830  0.56533944     0.00800
C780        C  0.35095371  0.12542558  0.51167694     0.40200
C781        C  0.41399753  0.24904840  0.58363551     0.36800
C782        C  0.36504744  0.16219981  0.64330261     0.36500
C783        C  0.29077847  0.29691371  0.63494664     0.37300
N784        N  0.33814075  0.09990310  0.49779375    -0.43500
N785        N  0.42732927  0.27387919  0.59825417    -0.44000
N786        N  0.27871583  0.32528881  0.63047054    -0.41300
N787        N  0.38119952  0.13539477  0.64532167    -0.42800
H788        H  0.32326587  0.19249718  0.69310712     0.13400
H789        H  0.33019056  0.26486169  0.58616549     0.09900
H790        H  0.32421352  0.16007926  0.56842691     0.11000
H791        H  0.44072771  0.21446380  0.52668773     0.16800
C792        C  0.58596732  0.16269340  0.29795459    -0.01400
C793        C  0.60466635  0.19437354  0.30992515     0.07200
C794        C  0.59944121  0.20736447  0.34482877    -0.07400
C795        C  0.57634022  0.18897434  0.36785855     0.04600
C796        C  0.55851911  0.15656294  0.35617698    -0.14600
C797        C  0.56322266  0.14413234  0.32101734    -0.08000
C798        C  0.63120972  0.21305219  0.28682687     0.05500
C799        C  0.61813875  0.23671226  0.26163808    -0.09100
C800        C  0.64246807  0.25277609  0.23797892     0.00500
C801        C  0.68058555  0.24479419  0.23905918     0.00400
C802        C  0.69356261  0.22160293  0.26476945    -0.12600
C803        C  0.66934388  0.20598171  0.28861627     0.00800
C804        C  0.62728758  0.27581392  0.21183640     0.40200
C805        C  0.68403301  0.18204933  0.31426169     0.36800
C806        C  0.59017456  0.14842846  0.26222750     0.36500
C807        C  0.57002617  0.20477718  0.40270970     0.37300
N808        N  0.61467299  0.29420277  0.19102239    -0.43500
N809        N  0.69561596  0.16288405  0.33492924    -0.44000
N810        N  0.56482108  0.21757740  0.43059423    -0.41300
N811        N  0.59343574  0.13699050  0.23356781    -0.42800
H812        H  0.54939378  0.11950531  0.31172777     0.13400
H813        H  0.61342746  0.23194545  0.35404630     0.09900
H814        H  0.58878739  0.24211960  0.26008401     0.11000
H815        H  0.72278119  0.21545439  0.26603641     0.16800
C816        C  0.08956565  0.84558134  0.78728565    -0.01400
C817        C  0.12791652  0.84909521  0.78210371     0.07200
C818        C  0.14779480  0.87399156  0.80350563    -0.07400
C819        C  0.13050180  0.89458899  0.83044340     0.04600
C820        C  0.09208156  0.89059696  0.83646071    -0.14600
C821        C  0.07206326  0.86600503  0.81446944    -0.08000
C822        C  0.14851442  0.82557416  0.75615189     0.05500
C823        C  0.14336961  0.82951613  0.71993137    -0.09100
C824        C  0.16328805  0.80832053  0.69500414     0.00500
C825        C  0.18883145  0.78181210  0.70603554     0.00400
C826        C  0.19397954  0.77868588  0.74272701    -0.12600
C827        C  0.17431390  0.80009917  0.76742962     0.00800
C828        C  0.15710398  0.81478428  0.65817722     0.40200
C829        C  0.18094415  0.79515049  0.80448949     0.36800
C830        C  0.06788377  0.82060707  0.76552088     0.36500
C831        C  0.15374248  0.91803287  0.85228403     0.37300
N832        N  0.15222312  0.82004984  0.62868225    -0.43500
N833        N  0.18636922  0.79127137  0.83415354    -0.44000
N834        N  0.17282787  0.93673077  0.86945840    -0.41300
N835        N  0.05063267  0.80066707  0.74785572    -0.42800
H836        H  0.04263453  0.86275062  0.81847403     0.13400
H837        H  0.17731338  0.87673007  0.79958519     0.09900
H838        H  0.12401259  0.84958672  0.71110585     0.11000
H839        H  0.21342319  0.76000736  0.75318806     0.16800
C840        C  0.29133036  0.63046214  0.71903729    -0.01400
C841        C  0.32806791  0.62778778  0.70731431     0.07200
C842        C  0.33952712  0.64865657  0.67924191    -0.07400
C843        C  0.31544500  0.67354409  0.66413457     0.04600
C844        C  0.27915735  0.67784471  0.67734935    -0.14600
C845        C  0.26730049  0.65507795  0.70397093    -0.08000
C846        C  0.35561622  0.60649413  0.72682698     0.05500
C847        C  0.36178594  0.56998743  0.71711142    -0.09100
C848        C  0.38558118  0.54877285  0.73698718     0.00500
C849        C  0.40392763  0.56429704  0.76691668     0.00400
C850        C  0.39831597  0.60100553  0.77598017    -0.12600
C851        C  0.37405179  0.62195021  0.75657679     0.00800
C852        C  0.39106625  0.51135079  0.72596805     0.40200
C853        C  0.36727475  0.65891431  0.76848377     0.36800
C854        C  0.27827915  0.60954441  0.74782594     0.36500
C855        C  0.32969142  0.69576222  0.63690325     0.37300
N856        N  0.39533857  0.48128511  0.71725077    -0.43500
N857        N  0.36154497  0.68845072  0.77815997    -0.44000
N858        N  0.34168086  0.71312792  0.61495569    -0.41300
N859        N  0.26791366  0.59285350  0.77098350    -0.42800
H860        H  0.23944198  0.65755839  0.71412765     0.13400
H861        H  0.36785124  0.64665595  0.67019842     0.09900
H862        H  0.34749638  0.55793627  0.69438542     0.11000
H863        H  0.41197169  0.61292927  0.79911007     0.16800
C864        C  0.30382969  0.78981454  0.54797067    -0.01400
C865        C  0.33223490  0.81183259  0.56270884     0.07200
C866        C  0.33567009  0.81543391  0.59945650    -0.07400
C867        C  0.31092543  0.79810288  0.62155060     0.04600
C868        C  0.28167765  0.77689122  0.60690227    -0.14600
C869        C  0.27878678  0.77256999  0.57007635    -0.08000
C870        C  0.36140726  0.82768250  0.54050204     0.05500
C871        C  0.35497752  0.85958157  0.52258455    -0.09100
C872        C  0.38229344  0.87439281  0.50087648     0.00500
C873        C  0.41784850  0.85831554  0.49866980     0.00400
C874        C  0.42248814  0.82491182  0.51512944    -0.12600
C875        C  0.39529743  0.80997766  0.53595624     0.00800
C876        C  0.37062122  0.90224636  0.47794835     0.40200
C877        C  0.40233311  0.77544924  0.55115059     0.36800
C878        C  0.30067650  0.78381963  0.51027403     0.36500
C879        C  0.31745366  0.80081268  0.65913045     0.37300
N880        N  0.35971185  0.92395257  0.45943753    -0.43500
N881        N  0.40804972  0.74768624  0.56304988    -0.44000
N882        N  0.32281191  0.80278901  0.68922048    -0.41300
N883        N  0.29845675  0.77905368  0.48001789    -0.42800
H884        H  0.25680148  0.75597059  0.55859667     0.13400
H885        H  0.35835351  0.83115766  0.61087825     0.09900
H886        H  0.32797594  0.87210451  0.52446159     0.11000
H887        H  0.44750507  0.80936206  0.51074316     0.16800
C888        C  0.19287693  0.37786390  0.56265920    -0.01400
C889        C  0.17650466  0.38121345  0.59633919     0.07200
C890        C  0.14653504  0.40456726  0.60175900    -0.07400
C891        C  0.13230922  0.42414413  0.57407345     0.04600
C892        C  0.14861221  0.42094921  0.54026820    -0.14600
C893        C  0.17879891  0.39763734  0.53493307    -0.08000
C894        C  0.18871547  0.35909498  0.62584380     0.05500
C895        C  0.20823946  0.37559026  0.65420384    -0.09100
C896        C  0.22077851  0.35509255  0.68213259     0.00500
C897        C  0.21297845  0.31768024  0.68211817     0.00400
C898        C  0.19228348  0.30160831  0.65431082    -0.12600
C899        C  0.18035930  0.32188626  0.62622365     0.00800
C900        C  0.24225975  0.37274400  0.70995597     0.40200
C901        C  0.15987673  0.30388166  0.59789809     0.36800
C902        C  0.22414162  0.35442860  0.55604417     0.36500
C903        C  0.09966271  0.44565026  0.58058412     0.37300
N904        N  0.25972926  0.38681208  0.73212557    -0.43500
N905        N  0.14358374  0.28942468  0.57513594    -0.44000
N906        N  0.07346365  0.46288244  0.58579388    -0.41300
N907        N  0.24918618  0.33564620  0.55067215    -0.42800
H908        H  0.19144166  0.39507432  0.50909138     0.13400
H909        H  0.13356478  0.40668368  0.62749691     0.09900
H910        H  0.21440409  0.40430201  0.65406388     0.11000
H911        H  0.18663629  0.27276405  0.65384017     0.16800
C912        C  0.14919245  0.60510961  0.31406055    -0.01400
C913        C  0.17853846  0.59244888  0.29259653     0.07200
C914        C  0.19643395  0.56019289  0.30061632    -0.07400
C915        C  0.18530353  0.54036673  0.32936226     0.04600
C916        C  0.15512418  0.55227929  0.35010265    -0.14600
C917        C  0.13746252  0.58477315  0.34223538    -0.08000
C918        C  0.19369298  0.61427869  0.26411137     0.05500
C919        C  0.22966328  0.62746422  0.26791529    -0.09100
C920        C  0.24539021  0.64924238  0.24275852     0.00500
C921        C  0.22439942  0.65909043  0.21292917     0.00400
C922        C  0.18863218  0.64444059  0.20864175    -0.12600
C923        C  0.17335173  0.62203369  0.23371775     0.00800
C924        C  0.28304955  0.66018288  0.24932680     0.40200
C925        C  0.13717594  0.60664668  0.22738399     0.36800
C926        C  0.13186017  0.63960042  0.30872499     0.36500
C927        C  0.20726618  0.50981061  0.33880823     0.37300
N928        N  0.31358059  0.66709698  0.25565179    -0.43500
N929        N  0.10822729  0.59418425  0.22232378    -0.44000
N930        N  0.22569717  0.48588976  0.34654112    -0.41300
N931        N  0.11805180  0.66729857  0.30455593    -0.42800
H932        H  0.11449361  0.59433405  0.35829672     0.13400
H933        H  0.21990422  0.55108977  0.28494636     0.09900
H934        H  0.24553729  0.62085430  0.29107053     0.11000
H935        H  0.17255742  0.65022664  0.18542507     0.16800
C936        C  0.15988529  0.67200045  0.54493278    -0.01400
C937        C  0.14247065  0.64113957  0.55817473     0.07200
C938        C  0.14460561  0.63531728  0.59440498    -0.07400
C939        C  0.16413584  0.65932205  0.61723600     0.04600
C940        C  0.18208058  0.68985751  0.60391051    -0.14600
C941        C  0.17954111  0.69602561  0.56776876    -0.08000
C942        C  0.12818387  0.61146594  0.53403382     0.05500
C943        C  0.15416757  0.58894157  0.51750815    -0.09100
C944        C  0.14350911  0.55953491  0.49562720     0.00500
C945        C  0.10529420  0.55184975  0.48882905     0.00400
C946        C  0.07918470  0.57497064  0.50551140    -0.12600
C947        C  0.09033237  0.60429765  0.52820983     0.00800
C948        C  0.17317690  0.53732935  0.48125754     0.40200
C949        C  0.06256561  0.62663848  0.54534508     0.36800
C950        C  0.15816534  0.67918482  0.50787486     0.36500
C951        C  0.16680349  0.65121141  0.65404503     0.37300
N952        N  0.19698816  0.51958680  0.46994928    -0.43500
N953        N  0.04029351  0.64451609  0.55916848    -0.44000
N954        N  0.16902440  0.64472607  0.68354158    -0.41300
N955        N  0.15657960  0.68484913  0.47814885    -0.42800
H956        H  0.19288568  0.71961168  0.55740567     0.13400
H957        H  0.13220395  0.61117842  0.60463555     0.09900
H958        H  0.18330055  0.59407869  0.52231662     0.11000
H959        H  0.05018288  0.57027109  0.50159356     0.16800
C960        C  0.12891824  0.17638262  0.15797151    -0.01400
C961        C  0.14833269  0.15840761  0.13055250     0.07200
C962        C  0.18678076  0.16134642  0.12937535    -0.07400
C963        C  0.20608199  0.18229161  0.15499392     0.04600
C964        C  0.18683475  0.20096746  0.18287107    -0.14600
C965        C  0.14799136  0.19695333  0.18382585    -0.08000
C966        C  0.12859353  0.13697700  0.10258460     0.05500
C967        C  0.10875197  0.15538071  0.07721829    -0.09100
C968        C  0.08816785  0.13642613  0.05125376     0.00500
C969        C  0.08737204  0.09813041  0.05038707     0.00400
C970        C  0.10783927  0.07975865  0.07553644    -0.12600
C971        C  0.12805614  0.09886142  0.10176845     0.00800
C972        C  0.06941095  0.15715549  0.02527945     0.40200
C973        C  0.14681933  0.07896267  0.12838530     0.36800
C974        C  0.08923034  0.17351689  0.16047248     0.36500
C975        C  0.24574118  0.18379417  0.15181070     0.37300
N976        N  0.05446681  0.17403425  0.00458388    -0.43500
N977        N  0.16166482  0.06307595  0.14988746    -0.44000
N978        N  0.27748585  0.18479892  0.14879423    -0.41300
N979        N  0.05745010  0.17122918  0.16242249    -0.42800
H980        H  0.13155373  0.20887057  0.20475948     0.13400
H981        H  0.20173948  0.14737034  0.10817564     0.09900
H982        H  0.10928250  0.18474532  0.07785559     0.11000
H983        H  0.10732335  0.05040809  0.07520925     0.16800
C984        C  0.34355564  0.32122683  0.21005881    -0.01400
C985        C  0.33400348  0.34764320  0.18576145     0.07200
C986        C  0.29669934  0.35164833  0.17659500    -0.07400
C987        C  0.26948367  0.32882886  0.18983438     0.04600
C988        C  0.27941275  0.30090997  0.21239944    -0.14600
C989        C  0.31632093  0.29831357  0.22325783    -0.08000
C990        C  0.36258634  0.36942261  0.16761832     0.05500
C991        C  0.38857318  0.35131839  0.14601002    -0.09100
C992        C  0.41378249  0.37039692  0.12570905     0.00500
C993        C  0.41364256  0.40876850  0.12683442     0.00400
C994        C  0.38835989  0.42682905  0.14957005    -0.12600
C995        C  0.36289606  0.40762241  0.16957398     0.00800
C996        C  0.43766729  0.34948783  0.10243410     0.40200
C997        C  0.33716989  0.42770061  0.19175588     0.36800
C998        C  0.38120036  0.31700521  0.22163225     0.36500
C999        C  0.23147924  0.33489184  0.18021312     0.37300
N1000       N  0.45659938  0.33201350  0.08411729    -0.43500
N1001       N  0.31642657  0.44374949  0.20944754    -0.44000
N1002       N  0.20099997  0.33984684  0.17265610    -0.41300
N1003       N  0.41139795  0.31369024  0.23091455    -0.42800
H1004       H  0.32418333  0.27738442  0.24098183     0.13400
H1005       H  0.28892880  0.37205404  0.15824976     0.09900
H1006       H  0.38822360  0.32196147  0.14396073     0.11000
H1007       H  0.38804375  0.45614634  0.15133190     0.16800
C1008       C  0.39237270  0.15865790  0.34998920    -0.01400
C1009       C  0.35977874  0.13977507  0.34137149     0.07200
C1010       C  0.35425205  0.10560873  0.35568901    -0.07400
C1011       C  0.38113036  0.08999817  0.37763900     0.04600
C1012       C  0.41540666  0.10789990  0.38423694    -0.14600
C1013       C  0.41862300  0.14337329  0.37167488    -0.08000
C1014       C  0.33085185  0.15726134  0.31952103     0.05500
C1015       C  0.33948244  0.16580009  0.28472266    -0.09100
C1016       C  0.31570462  0.18695205  0.26485860     0.00500
C1017       C  0.28210106  0.19960984  0.27947142     0.00400
C1018       C  0.27324565  0.19100770  0.31412394    -0.12600
C1019       C  0.29735123  0.17023797  0.33422711     0.00800
C1020       C  0.32721006  0.19662500  0.23008880     0.40200
C1021       C  0.28783658  0.16381516  0.37032437     0.36800
C1022       C  0.39873134  0.19499616  0.33861462     0.36500
C1023       C  0.37003756  0.05870428  0.39634566     0.37300
N1024       N  0.33704699  0.20467316  0.20249503    -0.43500
N1025       N  0.28025169  0.15876514  0.39931556    -0.44000
N1026       N  0.35944916  0.03415528  0.41142158    -0.41300
N1027       N  0.40385460  0.22405253  0.32945945    -0.42800
H1028       H  0.44128286  0.16066886  0.38037060     0.13400
H1029       H  0.32823425  0.09172363  0.35080092     0.09900
H1030       H  0.36555910  0.15684870  0.27345117     0.11000
H1031       H  0.24737345  0.20044968  0.32544982     0.16800
C1032       C  0.11088602  0.35887390  0.39037259    -0.01400
C1033       C  0.11917118  0.36388911  0.35454551     0.07200
C1034       C  0.10522614  0.39504288  0.33909099    -0.07400
C1035       C  0.08910542  0.42308827  0.36002561     0.04600
C1036       C  0.09018636  0.42167980  0.39723514    -0.14600
C1037       C  0.09518729  0.38726170  0.41086650    -0.08000
C1038       C  0.14221438  0.33743334  0.33315186     0.05500
C1039       C  0.13115997  0.30109437  0.32911643    -0.09100
C1040       C  0.15230826  0.27578227  0.30939585     0.00500
C1041       C  0.18494421  0.28674623  0.29216473     0.00400
C1042       C  0.19666223  0.32276431  0.29715131    -0.12600
C1043       C  0.17576570  0.34792194  0.31742509     0.00800
C1044       C  0.13999074  0.23856559  0.30760498     0.40200
C1045       C  0.18954993  0.38438479  0.32190150     0.36800
C1046       C  0.11991600  0.32582837  0.40738413     0.36500
C1047       C  0.07064327  0.45216775  0.34288980     0.37300
N1048       N  0.13006287  0.20876639  0.30609740    -0.43500
N1049       N  0.20067864  0.41362910  0.32544265    -0.44000
N1050       N  0.05563138  0.47534391  0.32915078    -0.41300
N1051       N  0.12688994  0.29934565  0.42117592    -0.42800
H1052       H  0.08755990  0.38260072  0.43776757     0.13400
H1053       H  0.10748141  0.39769794  0.31083192     0.09900
H1054       H  0.10571946  0.29245360  0.34123350     0.11000
H1055       H  0.22151313  0.33165970  0.28414448     0.16800
loop_ 
_geom_bond_atom_site_label_1 
_geom_bond_atom_site_label_2 
_geom_bond_distance 
_geom_bond_site_symmetry_2 
_ccdc_geom_bond_type 
C1            C2   1.535       .  S
C1            C7   1.537       .  S
C1            C5   1.543       .  S
C1          C964   1.543       .  S
C2            H9   1.087       .  S
C2            C3   1.362       .  D
C3            C4   1.547       .  S
C3         C1017   1.490       .  S
C4            C8   1.548       .  S
C4            C6   1.549       .  S
C4           H10   1.111       .  S
C5           H11   1.079       .  S
C5            C6   1.364       .  D
C6         C1041   1.498       .  S
C7           H12   1.086       .  S
C7            C8   1.369       .  D
C8          C988   1.493       .  S
C13          C15   1.546       .  S
C13          C17   1.555       .  S
C13          C16   1.550       .  S
C13        C1036   1.551       .  S
C14          C18   1.532       .  S
C14          C20   1.529       .  S
C14          C19   1.563       .  S
C14         C945   1.552       .  S
C15          C23   1.385       .  A
C15          C18   1.388       .  A
C16          C27   1.380       .  A
C16          C19   1.414       .  A
C17          C31   1.392       .  A
C17          C20   1.390       .  A
C18          C21   1.375       .  A
C19          C25   1.392       .  A
C20          C28   1.373       .  A
C21          N22   1.354       .  A
C21          H34   1.083       .  S
N22          C23   1.358       .  A
N22         C916   1.439       .  S
C23          H24   1.080       .  S
C25          N26   1.364   1_455  A
C25          H35   1.077       .  S
N26          C27   1.359   1_655  A
N26         N108   1.420       .  S
C27          H33   1.082       .  S
C28          N29   1.351       .  A
C28          H30   1.082       .  S
N29          C31   1.357       .  A
N29         C892   1.440       .  S
C31          H32   1.079       .  S
C36          C37   1.533       .  S
C36          C42   1.548       .  S
C36          C40   1.536       .  S
C36         C825   1.546       .  S
C37          H44   1.086       .  S
C37          C38   1.365       .  D
C38          C39   1.547       .  S
C38         C868   1.490       .  S
C39          C43   1.544       .  S
C39          C41   1.546       .  S
C39          H45   1.110       .  S
C40          H46   1.086       .  S
C40          C41   1.365       .  D
C41         C940   1.489       .  S
C42          H47   1.079       .  S
C42          C43   1.368       .  D
C43         C844   1.498       .  S
C48          C50   1.536       .  S
C48          C52   1.555       .  S
C48          C51   1.569       .  S
C48        C1012   1.556       .  S
C49          C53   1.536       .  S
C49          C55   1.540       .  S
C49          C54   1.533       .  S
C49         C748   1.537       .  S
C50          C58   1.379       .  A
C50          C53   1.389       .  A
C51          C62   1.396       .  A
C51          C54   1.409       .  A
C52          C66   1.384       .  A
C52          C55   1.391       .  A
C53          C56   1.377       .  A
C54          C60   1.373       .  A
C55          C63   1.385       .  A
C56          N57   1.353       .  A
C56          H69   1.081       .  S
N57          C58   1.354       .  A
N57         C777   1.433       .  S
C58          H59   1.083       .  S
C60          N61   1.349       .  A
C60          H70   1.082       .  S
N61          C62   1.366       .  A
N61         N155   1.410   1_545  S
C62          H68   1.080       .  S
C63          N64   1.358       .  A
C63          H65   1.082       .  S
N64          C66   1.356       .  A
N64         C796   1.445       .  S
C66          H67   1.082       .  S
C71          C72   1.543       .  S
C71          C77   1.538       .  S
C71          C75   1.533       .  S
C71         C681   1.549       .  S
C72          H79   1.077       .  S
C72          C73   1.367       .  D
C73          C74   1.555       .  S
C73         C705   1.512       .  S
C74          C78   1.542       .  S
C74          C76   1.554       .  S
C74          H80   1.108       .  S
C75          H81   1.086       .  S
C75          C76   1.368       .  D
C76         C724   1.496       .  S
C77          H82   1.086       .  S
C77          C78   1.366       .  D
C78         C801   1.494       .  S
C83          C84   1.534       .  S
C83          C89   1.539       .  S
C83          C87   1.540       .  S
C83         C628   1.536       .  S
C84          H91   1.087       .  S
C84          C85   1.364       .  D
C85          C86   1.537       .  S
C85         C897   1.481       .  S
C86          C90   1.537       .  S
C86          C88   1.541       .  S
C86          H92   1.107       .  S
C87          H93   1.085       .  S
C87          C88   1.372       .  D
C88         C772   1.496       .  S
C89          H94   1.080       .  S
C89          C90   1.359       .  D
C90         C657   1.481       .  S
C95          C97   1.527       .  S
C95          C99   1.530       .  S
C95          C98   1.568       .  S
C95         C556   1.546       .  S
C96         C100   1.539       .  S
C96         C102   1.528       .  S
C96         C101   1.561       .  S
C96         C729   1.551       .  S
C97         C105   1.379       .  A
C97         C100   1.386       .  A
C98         C109   1.389       .  A
C98         C101   1.423       .  A
C99         C113   1.375       .  A
C99         C102   1.383       .  A
C100        C103   1.380       .  A
C101        C107   1.383       .  A
C102        C110   1.378       .  A
C103        N104   1.351       .  A
C103        H116   1.083       .  S
N104        C105   1.350       .  A
N104        C604   1.427       .  S
C105        H106   1.082       .  S
C107        N108   1.361       .  A
C107        H117   1.081       .  S
N108        C109   1.362       .  A
C109        H115   1.078       .  S
C110        N111   1.356       .  A
C110        H112   1.082       .  S
N111        C113   1.355       .  A
N111        C580   1.433       .  S
C113        H114   1.083       .  S
C118        C119   1.547       .  S
C118        C124   1.546       .  S
C118        C122   1.537       .  S
C118        C484   1.540       .  S
C119        H126   1.086       .  S
C119        C120   1.371       .  D
C120        C121   1.531       .  S
C120        C508   1.490       .  S
C121        C125   1.531       .  S
C121        C123   1.533       .  S
C121        H127   1.110       .  S
C122        H128   1.086       .  S
C122        C123   1.364       .  D
C123        C532   1.473       .  S
C124        H129   1.080       .  S
C124        C125   1.357       .  D
C125        C609   1.481       .  S
C130        C131   1.540       .  S
C130        C136   1.544       .  S
C130        C134   1.544       .  S
C130        C436   1.541       .  S
C131        H138   1.084       .  S
C131        C132   1.372       .  D
C132        C133   1.545       .  S
C132        C753   1.499       .  S
C133        C137   1.537       .  S
C133        C135   1.530       .  S
C133        H139   1.109       .  S
C134        H140   1.080       .  S
C134        C135   1.355       .  D
C135        C585   1.471       .  S
C136        H141   1.086       .  S
C136        C137   1.367       .  D
C137        C460   1.491       .  S
C142        C144   1.533       .  S
C142        C146   1.550       .  S
C142        C145   1.564       .  S
C142        C873   1.546       .  S
C143        C147   1.524       .  S
C143        C149   1.539       .  S
C143        C148   1.556       .  S
C143        C537   1.538       .  S
C144        C152   1.383       .  A
C144        C147   1.385       .  A
C145        C156   1.395       .  A
C145        C148   1.418       .  A
C146        C160   1.383       .  A
C146        C149   1.390       .  A
C147        C150   1.374       .  A
C148        C154   1.384       .  A
C149        C157   1.384       .  A
C150        N151   1.350       .  A
C150        H163   1.083       .  S
N151        C152   1.354       .  A
N151        C412   1.434       .  S
C152        H153   1.083       .  S
C154        N155   1.348       .  A
C154        H164   1.080       .  S
N155        C156   1.358       .  A
C156        H162   1.080       .  S
C157        N158   1.361       .  A
C157        H159   1.082       .  S
N158        C160   1.357       .  A
N158        C388   1.447       .  S
C160        H161   1.082       .  S
C165        C166   1.543       .  S
C165        C171   1.535       .  S
C165        C169   1.543       .  S
C165        C345   1.539       .  S
C166        H173   1.086       .  S
C166        C167   1.374       .  D
C167        C168   1.540       .  S
C167        C921   1.498       .  S
C168        C172   1.541       .  S
C168        C170   1.528       .  S
C168        H174   1.104       .  S
C169        H175   1.079       .  S
C169        C170   1.355       .  D
C170        C417   1.472       .  S
C171        H176   1.086       .  S
C171        C172   1.366       .  D
C172        C369   1.492       .  S
C177        C178   1.529       .  S
C177        C183   1.546       .  S
C177        C181   1.533       .  S
C177        C297   1.540       .  S
C178        H185   1.087       .  S
C178        C179   1.361       .  D
C179        C180   1.554       .  S
C179        C561   1.485       .  S
C180        C184   1.545       .  S
C180        C182   1.550       .  S
C180        H186   1.106       .  S
C181        H187   1.086       .  S
C181        C182   1.368       .  D
C182        C393   1.503       .  S
C183        H188   1.079       .  S
C183        C184   1.367       .  D
C184        C316   1.499       .  S
C189        C191   1.550       .  S
C189        C193   1.554       .  S
C189        C192   1.548       .  S
C189        C700   1.545       .  S
C190        C194   1.536       .  S
C190        C196   1.549       .  S
C190        C195   1.523       .  S
C190        C364   1.534       .  S
C191        C199   1.382       .  A
C191        C194   1.393       .  A
C192        C203   1.391   1_554  A
C192        C195   1.390       .  A
C193        C207   1.391       .  A
C193        C196   1.406       .  A
C194        C197   1.376       .  A
C195        C201   1.372   1_554  A
C196        C204   1.387       .  A
C197        N198   1.354       .  A
C197        H210   1.081       .  S
N198        C199   1.358       .  A
N198        C513   1.441       .  S
C199        H200   1.080       .  S
C201        N202   1.352       .  A
C201        H211   1.082       .  S
N202        C203   1.365       .  A
N202        N225   1.408       .  S
C203        H209   1.082       .  S
C204        N205   1.355       .  A
C204        H206   1.080       .  S
N205        C207   1.357       .  A
N205        C993   1.453       .  S
C207        H208   1.081       .  S
C212        C214   1.538       .  S
C212        C216   1.548       .  S
C212        C215   1.567       .  S
C212        C321   1.546       .  S
C213        C217   1.535       .  S
C213        C219   1.545       .  S
C213        C218   1.533       .  S
C213        C652   1.533       .  S
C214        C222   1.377       .  A
C214        C217   1.385       .  A
C215        C226   1.399       .  A
C215        C218   1.407       .  A
C216        C230   1.385       .  A
C216        C219   1.392       .  A
C217        C220   1.381       .  A
C218        C224   1.371       .  A
C219        C227   1.388       .  A
C220        N221   1.357       .  A
C220        H233   1.081       .  S
N221        C222   1.356       .  A
N221        C465   1.439       .  S
C222        H223   1.083       .  S
C224        N225   1.350       .  A
C224        H234   1.082       .  S
N225        C226   1.363       .  A
C226        H232   1.078       .  S
C227        N228   1.354       .  A
C227        H229   1.080       .  S
N228        C230   1.355       .  A
N228        C849   1.443       .  S
C230        H231   1.082       .  S
C235        N253   1.346       .  A
C235        C272   1.467       .  S
C235        C340   1.473       .  S
N236        N253   1.320   1_556  A
N236        N258   1.318       .  A
N236       Co273   2.065   1_455  S
C237        N262   1.338       .  A
C237        H282   1.081       .  S
C237        C275   1.464       .  S
H238        C279   1.080       .  S
C239        N263   1.345   1_554  A
C239        H268   1.081       .  S
C239        C243   1.470       .  S
Co240       N258   2.089       .  S
Co240       N248   2.080   1_565  S
Co240       N280   2.073       .  S
Co240       N256   2.083   1_565  S
Co240      Cl284   2.447   1_455  S
N241        C279   1.338   1_556  A
N241        N248   1.319       .  A
N241       Co242   2.082   1_455  S
Co242       N245   2.079       .  S
Co242       N262   2.076   1_655  S
Co242       N249   2.085       .  S
Co242      Cl284   2.448   1_545  S
C243        N281   1.350       .  A
C243        C676   1.491       .  S
N244        N251   1.320       .  A
N244        N274   1.320   1_556  A
N244       Co277   2.062       .  S
N245        N263   1.319       .  A
N245        N281   1.324   1_556  A
N246        C275   1.352       .  A
N246        N256   1.323       .  A
H247        C272   1.081       .  S
N248        N269   1.325   1_556  A
N249        N267   1.318       .  A
N249        N254   1.324       .  A
C250        N254   1.352       .  A
C250        C278   1.457       .  S
C250        C441   1.479       .  S
N251        C266   1.343   1_556  A
N251       Co273   2.098       .  S
C252        N280   1.336       .  A
C252        H286   1.080       .  S
C252        C255   1.459       .  S
C255        N276   1.357       .  A
C255        C820   1.492       .  S
N256        N262   1.317       .  A
N257        C283   1.332       .  A
N257        N259   1.318       .  A
N257       Co273   2.059       .  S
N258        C272   1.340   1_556  A
N259        N287   1.328       .  A
N259       Co277   2.103       .  S
H260        C283   1.080       .  S
H261        C278   1.081       .  S
N263       Co277   2.106   1_545  S
N264        N276   1.329       .  A
N264        N280   1.317       .  A
N264       Co273   2.102   1_455  S
C265        N269   1.351       .  A
C265        C279   1.461       .  S
C265        C969   1.480       .  S
C266        H270   1.081       .  S
C266        C285   1.466       .  S
N267        C278   1.335       .  A
N267       Co277   2.065   1_545  S
C271        N287   1.356       .  A
C271        C283   1.455       .  S
C271        C292   1.483       .  S
Co273      Cl284   2.444       .  S
N274        C285   1.345       .  A
C275        C633   1.481       .  S
Co277      Cl284   2.450       .  S
C285        C489   1.476       .  S
C288        C289   1.412       .  A
C288        C293   1.404       .  A
C288        C302   1.443       .  S
C289        C290   1.399       .  A
C289        C294   1.486       .  S
C290        C291   1.395       .  A
C290        H309   1.085       .  S
C291        C292   1.418       .  A
C291        C303   1.444       .  S
C292        C293   1.405       .  A
C293        H308   1.085       .  S
C294        C295   1.399       .  A
C294        C299   1.408       .  A
C295        C296   1.401       .  A
C295        H310   1.085       .  S
C296        C297   1.424       .  A
C296        C300   1.445       .  S
C297        C298   1.412       .  A
C298        C299   1.397       .  A
C298        H311   1.075       .  S
C299        C301   1.446       .  S
C300        N304   1.157       .  T
C301        N305   1.157       .  T
C302        N307   1.157       .  T
C303        N306   1.158       .  T
C312        C313   1.411       .  A
C312        C317   1.402       .  A
C312        C326   1.444       .  S
C313        C314   1.407       .  A
C313        C318   1.496       .  S
C314        C315   1.404       .  A
C314        H333   1.085       .  S
C315        C316   1.413       .  A
C315        C327   1.441       .  S
C316        C317   1.410       .  A
C317        H332   1.085       .  S
C318        C319   1.396       .  A
C318        C323   1.414       .  A
C319        C320   1.395       .  A
C319        H334   1.085       .  S
C320        C321   1.432       .  A
C320        C324   1.448       .  S
C321        C322   1.407       .  A
C322        C323   1.410       .  A
C322        H335   1.073       .  S
C323        C325   1.443       .  S
C324        N328   1.158       .  T
C325        N329   1.157       .  T
C326        N331   1.157       .  T
C327        N330   1.157       .  T
C336        C337   1.407       .  A
C336        C341   1.400       .  A
C336        C350   1.444       .  S
C337        C338   1.401       .  A
C337        C342   1.477       .  S
C338        C339   1.397       .  A
C338        H357   1.085       .  S
C339        C340   1.413       .  A
C339        C351   1.444       .  S
C340        C341   1.405       .  A
C341        H356   1.085       .  S
C342        C343   1.400       .  A
C342        C347   1.402       .  A
C343        C344   1.403       .  A
C343        H358   1.085       .  S
C344        C345   1.423       .  A
C344        C348   1.445       .  S
C345        C346   1.415       .  A
C346        C347   1.392       .  A
C346        H359   1.073       .  S
C347        C349   1.446       .  S
C348        N352   1.157       .  T
C349        N353   1.157       .  T
C350        N355   1.157       .  T
C351        N354   1.157   1_554  T
C360        C361   1.410       .  A
C360        C365   1.397       .  A
C360        C374   1.444       .  S
C361        C362   1.403       .  A
C361        C366   1.488       .  S
C362        C363   1.400       .  A
C362        H381   1.084       .  S
C363        C364   1.419       .  A
C363        C375   1.445       .  S
C364        C365   1.407       .  A
C365        H380   1.081       .  S
C366        C367   1.402       .  A
C366        C371   1.411       .  A
C367        C368   1.394       .  A
C367        H382   1.085       .  S
C368        C369   1.414       .  A
C368        C372   1.443       .  S
C369        C370   1.409       .  A
C370        C371   1.403       .  A
C370        H383   1.084       .  S
C371        C373   1.444       .  S
C372        N376   1.157       .  T
C373        N377   1.157       .  T
C374        N379   1.157       .  T
C375        N378   1.157       .  T
C384        C385   1.409       .  A
C384        C389   1.404       .  A
C384        C398   1.444       .  S
C385        C386   1.404       .  A
C385        C390   1.489       .  S
C386        C387   1.404       .  A
C386        H405   1.085       .  S
C387        C388   1.411       .  A
C387        C399   1.442       .  S
C388        C389   1.409       .  A
C389        H404   1.084       .  S
C390        C391   1.404       .  A
C390        C395   1.406       .  A
C391        C392   1.407       .  A
C391        H406   1.085       .  S
C392        C393   1.416       .  A
C392        C396   1.442       .  S
C393        C394   1.412       .  A
C394        C395   1.400       .  A
C394        H407   1.084       .  S
C395        C397   1.444       .  S
C396        N400   1.157       .  T
C397        N401   1.157       .  T
C398        N403   1.157       .  T
C399        N402   1.157       .  T
C408        C409   1.411       .  A
C408        C413   1.399       .  A
C408        C422   1.444       .  S
C409        C410   1.400       .  A
C409        C414   1.476       .  S
C410        C411   1.395       .  A
C410        H429   1.085       .  S
C411        C412   1.412       .  A
C411        C423   1.444       .  S
C412        C413   1.402       .  A
C413        H428   1.084       .  S
C414        C415   1.399       .  A
C414        C419   1.412       .  A
C415        C416   1.393       .  A
C415        H430   1.085       .  S
C416        C417   1.413       .  A
C416        C420   1.445       .  S
C417        C418   1.399       .  A
C418        C419   1.400       .  A
C418        H431   1.085       .  S
C419        C421   1.443       .  S
C420        N424   1.157       .  T
C421        N425   1.157       .  T
C422        N427   1.157       .  T
C423        N426   1.157       .  T
C432        C433   1.404       .  A
C432        C437   1.397       .  A
C432        C446   1.446       .  S
C433        C434   1.400       .  A
C433        C438   1.482       .  S
C434        C435   1.400       .  A
C434        H453   1.085       .  S
C435        C436   1.421       .  A
C435        C447   1.442       .  S
C436        C437   1.416       .  A
C437        H452   1.075       .  S
C438        C439   1.403       .  A
C438        C443   1.408       .  A
C439        C440   1.399       .  A
C439        H454   1.085       .  S
C440        C441   1.414       .  A
C440        C444   1.444       .  S
C441        C442   1.405       .  A
C442        C443   1.396       .  A
C442        H455   1.084       .  S
C443        C445   1.444       .  S
C444        N448   1.157       .  T
C445        N449   1.157       .  T
C446        N451   1.157       .  T
C447        N450   1.156       .  T
C456        C457   1.408       .  A
C456        C461   1.402       .  A
C456        C470   1.444       .  S
C457        C458   1.400       .  A
C457        C462   1.482       .  S
C458        C459   1.401       .  A
C458        H477   1.085       .  S
C459        C460   1.414       .  A
C459        C471   1.441       .  S
C460        C461   1.407       .  A
C461        H476   1.084       .  S
C462        C463   1.402       .  A
C462        C467   1.409       .  A
C463        C464   1.402       .  A
C463        H478   1.085       .  S
C464        C465   1.411       .  A
C464        C468   1.442       .  S
C465        C466   1.404       .  A
C466        C467   1.400       .  A
C466        H479   1.084       .  S
C467        C469   1.444       .  S
C468        N472   1.157       .  T
C469        N473   1.157       .  T
C470        N475   1.157       .  T
C471        N474   1.156       .  T
C480        C481   1.402       .  A
C480        C485   1.391       .  A
C480        C494   1.446       .  S
C481        C482   1.401       .  A
C481        C486   1.479       .  S
C482        C483   1.404       .  A
C482        H501   1.085       .  S
C483        C484   1.424       .  A
C483        C495   1.445       .  S
C484        C485   1.414       .  A
C485        H500   1.077       .  S
C486        C487   1.403       .  A
C486        C491   1.407       .  A
C487        C488   1.399       .  A
C487        H502   1.085       .  S
C488        C489   1.413       .  A
C488        C492   1.443       .  S
C489        C490   1.405       .  A
C490        C491   1.398       .  A
C490        H503   1.085       .  S
C491        C493   1.444       .  S
C492        N496   1.157       .  T
C493        N497   1.157       .  T
C494        N499   1.157       .  T
C495        N498   1.157       .  T
C504        C505   1.406       .  A
C504        C509   1.402       .  A
C504        C518   1.443       .  S
C505        C506   1.394       .  A
C505        C510   1.473       .  S
C506        C507   1.395       .  A
C506        H525   1.086       .  S
C507        C508   1.419       .  A
C507        C519   1.440       .  S
C508        C509   1.408       .  A
C509        H524   1.084       .  S
C510        C511   1.397       .  A
C510        C515   1.406       .  A
C511        C512   1.394       .  A
C511        H526   1.086       .  S
C512        C513   1.417       .  A
C512        C516   1.443       .  S
C513        C514   1.408       .  A
C514        C515   1.402       .  A
C514        H527   1.084       .  S
C515        C517   1.443       .  S
C516        N520   1.157       .  T
C517        N521   1.157       .  T
C518        N523   1.157       .  T
C519        N522   1.156       .  T
C528        C529   1.409       .  A
C528        C533   1.396       .  A
C528        C542   1.445       .  S
C529        C530   1.400       .  A
C529        C534   1.473       .  S
C530        C531   1.399       .  A
C530        H549   1.085       .  S
C531        C532   1.410       .  A
C531        C543   1.443       .  S
C532        C533   1.402       .  A
C533        H548   1.085       .  S
C534        C535   1.395       .  A
C534        C539   1.400       .  A
C535        C536   1.397       .  A
C535        H550   1.086       .  S
C536        C537   1.427       .  A
C536        C540   1.446       .  S
C537        C538   1.413       .  A
C538        C539   1.398       .  A
C538        H551   1.073       .  S
C539        C541   1.444       .  S
C540        N544   1.158       .  T
C541        N545   1.157       .  T
C542        N547   1.157       .  T
C543        N546   1.157       .  T
C552        C553   1.411       .  A
C552        C557   1.413       .  A
C552        C566   1.442       .  S
C553        C554   1.391       .  A
C553        C558   1.488       .  S
C554        C555   1.393       .  A
C554        H573   1.086       .  S
C555        C556   1.433       .  A
C555        C567   1.448       .  S
C556        C557   1.409       .  A
C557        H572   1.074       .  S
C558        C559   1.404       .  A
C558        C563   1.411       .  A
C559        C560   1.404       .  A
C559        H574   1.085       .  S
C560        C561   1.411       .  A
C560        C564   1.443       .  S
C561        C562   1.403       .  A
C562        C563   1.405       .  A
C562        H575   1.084       .  S
C563        C565   1.443       .  S
C564        N568   1.157       .  T
C565        N569   1.157       .  T
C566        N571   1.157       .  T
C567        N570   1.158       .  T
C576        C577   1.412       .  A
C576        C581   1.396       .  A
C576        C590   1.445       .  S
C577        C578   1.404       .  A
C577        C582   1.482       .  S
C578        C579   1.401       .  A
C578        H597   1.085       .  S
C579        C580   1.410       .  A
C579        C591   1.443       .  S
C580        C581   1.401       .  A
C581        H596   1.084       .  S
C582        C583   1.403       .  A
C582        C587   1.412       .  A
C583        C584   1.400       .  A
C583        H598   1.085       .  S
C584        C585   1.409       .  A
C584        C588   1.443       .  S
C585        C586   1.399       .  A
C586        C587   1.395       .  A
C586        H599   1.085       .  S
C587        C589   1.444       .  S
C588        N592   1.157       .  T
C589        N593   1.157       .  T
C590        N595   1.157       .  T
C591        N594   1.157       .  T
C600        C601   1.411       .  A
C600        C605   1.399       .  A
C600        C614   1.444       .  S
C601        C602   1.403       .  A
C601        C606   1.477       .  S
C602        C603   1.398       .  A
C602        H621   1.085       .  S
C603        C604   1.406       .  A
C603        C615   1.443       .  S
C604        C605   1.399       .  A
C605        H620   1.084       .  S
C606        C607   1.399       .  A
C606        C611   1.409       .  A
C607        C608   1.394       .  A
C607        H622   1.085       .  S
C608        C609   1.417       .  A
C608        C612   1.445       .  S
C609        C610   1.404       .  A
C610        C611   1.402       .  A
C610        H623   1.085       .  S
C611        C613   1.443       .  S
C612        N616   1.157       .  T
C613        N617   1.157       .  T
C614        N619   1.157       .  T
C615        N618   1.157       .  T
C624        C625   1.406       .  A
C624        C629   1.395       .  A
C624        C638   1.446       .  S
C625        C626   1.399       .  A
C625        C630   1.480       .  S
C626        C627   1.401       .  A
C626        H645   1.085       .  S
C627        C628   1.423       .  A
C627        C639   1.445       .  S
C628        C629   1.413       .  A
C629        H644   1.076       .  S
C630        C631   1.401       .  A
C630        C635   1.408       .  A
C631        C632   1.400       .  A
C631        H646   1.085       .  S
C632        C633   1.415       .  A
C632        C636   1.444       .  S
C633        C634   1.406       .  A
C634        C635   1.397       .  A
C634        H647   1.084       .  S
C635        C637   1.445       .  S
C636        N640   1.158       .  T
C637        N641   1.157       .  T
C638        N643   1.157       .  T
C639        N642   1.157       .  T
C648        C649   1.409       .  A
C648        C653   1.395       .  A
C648        C662   1.445       .  S
C649        C650   1.402       .  A
C649        C654   1.478       .  S
C650        C651   1.399       .  A
C650        H669   1.085       .  S
C651        C652   1.415       .  A
C651        C663   1.444       .  S
C652        C653   1.405       .  A
C653        H668   1.080       .  S
C654        C655   1.404       .  A
C654        C659   1.406       .  A
C655        C656   1.397       .  A
C655        H670   1.085       .  S
C656        C657   1.410       .  A
C656        C660   1.444       .  S
C657        C658   1.407       .  A
C658        C659   1.397       .  A
C658        H671   1.085       .  S
C659        C661   1.444       .  S
C660        N664   1.157       .  T
C661        N665   1.157       .  T
C662        N667   1.157       .  T
C663        N666   1.157       .  T
C672        C673   1.411       .  A
C672        C677   1.403       .  A
C672        C686   1.444       .  S
C673        C674   1.401       .  A
C673        C678   1.491       .  S
C674        C675   1.404       .  A
C674        H693   1.085       .  S
C675        C676   1.418       .  A
C675        C687   1.444       .  S
C676        C677   1.406       .  A
C677        H692   1.083       .  S
C678        C679   1.401       .  A
C678        C683   1.406       .  A
C679        C680   1.407       .  A
C679        H694   1.085       .  S
C680        C681   1.425       .  A
C680        C684   1.445       .  S
C681        C682   1.415       .  A
C682        C683   1.398       .  A
C682        H695   1.074       .  S
C683        C685   1.445       .  S
C684        N688   1.157       .  T
C685        N689   1.157       .  T
C686        N691   1.157       .  T
C687        N690   1.157       .  T
C696        C697   1.414       .  A
C696        C701   1.405       .  A
C696        C710   1.444       .  S
C697        C698   1.409       .  A
C697        C702   1.505       .  S
C698        C699   1.405       .  A
C698        H717   1.084       .  S
C699        C700   1.414       .  A
C699        C711   1.443       .  S
C700        C701   1.407       .  A
C701        H716   1.081       .  S
C702        C703   1.410       .  A
C702        C707   1.411       .  A
C703        C704   1.410       .  A
C703        H718   1.084       .  S
C704        C705   1.414       .  A
C704        C708   1.442       .  S
C705        C706   1.414       .  A
C706        C707   1.402       .  A
C706        H719   1.084       .  S
C707        C709   1.445       .  S
C708        N712   1.157       .  T
C709        N713   1.157       .  T
C710        N715   1.157       .  T
C711        N714   1.157       .  T
C720        C721   1.415       .  A
C720        C725   1.407       .  A
C720        C734   1.444       .  S
C721        C722   1.401       .  A
C721        C726   1.494       .  S
C722        C723   1.404       .  A
C722        H741   1.085       .  S
C723        C724   1.417       .  A
C723        C735   1.443       .  S
C724        C725   1.404       .  A
C725        H740   1.085       .  S
C726        C727   1.407       .  A
C726        C731   1.401       .  A
C727        C728   1.416       .  A
C727        H742   1.084       .  S
C728        C729   1.422       .  A
C728        C732   1.441       .  S
C729        C730   1.419       .  A
C730        C731   1.392       .  A
C730        H743   1.080       .  S
C731        C733   1.446       .  S
C732        N736   1.158       .  T
C733        N737   1.157       .  T
C734        N739   1.157       .  T
C735        N738   1.157       .  T
C744        C745   1.408       .  A
C744        C749   1.398       .  A
C744        C758   1.444       .  S
C745        C746   1.402       .  A
C745        C750   1.483       .  S
C746        C747   1.402       .  A
C746        H765   1.084       .  S
C747        C748   1.418       .  A
C747        C759   1.443       .  S
C748        C749   1.408       .  A
C749        H764   1.081       .  S
C750        C751   1.401       .  A
C750        C755   1.407       .  A
C751        C752   1.404       .  A
C751        H766   1.085       .  S
C752        C753   1.420       .  A
C752        C756   1.442       .  S
C753        C754   1.407       .  A
C754        C755   1.396       .  A
C754        H767   1.081       .  S
C755        C757   1.445       .  S
C756        N760   1.157       .  T
C757        N761   1.157       .  T
C758        N763   1.157       .  T
C759        N762   1.157       .  T
C768        C769   1.407       .  A
C768        C773   1.399       .  A
C768        C782   1.444       .  S
C769        C770   1.395       .  A
C769        C774   1.477       .  S
C770        C771   1.397       .  A
C770        H789   1.086       .  S
C771        C772   1.421       .  A
C771        C783   1.438       .  S
C772        C773   1.409       .  A
C773        H788   1.084       .  S
C774        C775   1.402       .  A
C774        C779   1.408       .  A
C775        C776   1.398       .  A
C775        H790   1.085       .  S
C776        C777   1.411       .  A
C776        C780   1.443       .  S
C777        C778   1.402       .  A
C778        C779   1.397       .  A
C778        H791   1.084       .  S
C779        C781   1.443       .  S
C780        N784   1.157       .  T
C781        N785   1.157       .  T
C782        N787   1.157       .  T
C783        N786   1.156       .  T
C792        C793   1.410       .  A
C792        C797   1.402       .  A
C792        C806   1.443       .  S
C793        C794   1.404       .  A
C793        C798   1.490       .  S
C794        C795   1.406       .  A
C794        H813   1.085       .  S
C795        C796   1.415       .  A
C795        C807   1.443       .  S
C796        C797   1.404       .  A
C797        H812   1.084       .  S
C798        C799   1.404       .  A
C798        C803   1.409       .  A
C799        C800   1.407       .  A
C799        H814   1.085       .  S
C800        C801   1.414       .  A
C800        C804   1.443       .  S
C801        C802   1.406       .  A
C802        C803   1.402       .  A
C802        H815   1.085       .  S
C803        C805   1.444       .  S
C804        N808   1.157       .  T
C805        N809   1.157       .  T
C806        N811   1.157       .  T
C807        N810   1.157       .  T
C816        C817   1.410       .  A
C816        C821   1.406       .  A
C816        C830   1.443       .  S
C817        C818   1.400       .  A
C817        C822   1.490       .  S
C818        C819   1.400       .  A
C818        H837   1.085       .  S
C819        C820   1.420       .  A
C819        C831   1.443       .  S
C820        C821   1.408       .  A
C821        H836   1.085       .  S
C822        C823   1.400       .  A
C822        C827   1.407       .  A
C823        C824   1.405       .  A
C823        H838   1.085       .  S
C824        C825   1.424       .  A
C824        C828   1.445       .  S
C825        C826   1.414       .  A
C826        C827   1.399       .  A
C826        H839   1.074       .  S
C827        C829   1.445       .  S
C828        N832   1.157       .  T
C829        N833   1.157       .  T
C830        N835   1.157       .  T
C831        N834   1.158       .  T
C840        C841   1.407       .  A
C840        C845   1.399       .  A
C840        C854   1.444       .  S
C841        C842   1.404       .  A
C841        C846   1.488       .  S
C842        C843   1.408       .  A
C842        H861   1.085       .  S
C843        C844   1.415       .  A
C843        C855   1.442       .  S
C844        C845   1.408       .  A
C845        H860   1.084       .  S
C846        C847   1.403       .  A
C846        C851   1.411       .  A
C847        C848   1.406       .  A
C847        H862   1.084       .  S
C848        C849   1.415       .  A
C848        C852   1.443       .  S
C849        C850   1.402       .  A
C850        C851   1.401       .  A
C850        H863   1.084       .  S
C851        C853   1.443       .  S
C852        N856   1.157       .  T
C853        N857   1.157       .  T
C854        N859   1.157       .  T
C855        N858   1.157       .  T
C864        C865   1.411       .  A
C864        C869   1.406       .  A
C864        C878   1.443       .  S
C865        C866   1.401       .  A
C865        C870   1.487       .  S
C866        C867   1.401       .  A
C866        H885   1.085       .  S
C867        C868   1.416       .  A
C867        C879   1.445       .  S
C868        C869   1.404       .  A
C869        H884   1.084       .  S
C870        C871   1.405       .  A
C870        C875   1.401       .  A
C871        C872   1.413       .  A
C871        H886   1.085       .  S
C872        C873   1.421       .  A
C872        C876   1.439       .  S
C873        C874   1.417       .  A
C874        C875   1.392       .  A
C874        H887   1.084       .  S
C875        C877   1.445       .  S
C876        N880   1.158       .  T
C877        N881   1.157       .  T
C878        N883   1.157       .  T
C879        N882   1.157       .  T
C888        C889   1.411       .  A
C888        C893   1.402       .  A
C888        C902   1.444       .  S
C889        C890   1.399       .  A
C889        C894   1.481       .  S
C890        C891   1.398       .  A
C890        H909   1.085       .  S
C891        C892   1.414       .  A
C891        C903   1.443       .  S
C892        C893   1.404       .  A
C893        H908   1.084       .  S
C894        C895   1.404       .  A
C894        C899   1.409       .  A
C895        C896   1.403       .  A
C895        H910   1.084       .  S
C896        C897   1.411       .  A
C896        C900   1.444       .  S
C897        C898   1.404       .  A
C898        C899   1.396       .  A
C898        H911   1.085       .  S
C899        C901   1.444       .  S
C900        N904   1.157       .  T
C901        N905   1.157       .  T
C902        N907   1.157       .  T
C903        N906   1.157       .  T
C912        C913   1.410       .  A
C912        C917   1.398       .  A
C912        C926   1.444       .  S
C913        C914   1.403       .  A
C913        C918   1.481       .  S
C914        C915   1.399       .  A
C914        H933   1.085       .  S
C915        C916   1.410       .  A
C915        C927   1.440       .  S
C916        C917   1.405       .  A
C917        H932   1.084       .  S
C918        C919   1.396       .  A
C918        C923   1.407       .  A
C919        C920   1.396       .  A
C919        H934   1.086       .  S
C920        C921   1.423       .  A
C920        C924   1.441       .  S
C921        C922   1.410       .  A
C922        C923   1.401       .  A
C922        H935   1.084       .  S
C923        C925   1.443       .  S
C924        N928   1.157       .  T
C925        N929   1.157       .  T
C926        N931   1.157       .  T
C927        N930   1.156       .  T
C936        C937   1.413       .  A
C936        C941   1.407       .  A
C936        C950   1.443       .  S
C937        C938   1.402       .  A
C937        C942   1.491       .  S
C938        C939   1.404       .  A
C938        H957   1.085       .  S
C939        C940   1.413       .  A
C939        C951   1.444       .  S
C940        C941   1.403       .  A
C941        H956   1.084       .  S
C942        C943   1.392       .  A
C942        C947   1.412       .  A
C943        C944   1.394       .  A
C943        H958   1.086       .  S
C944        C945   1.434       .  A
C944        C948   1.448       .  S
C945        C946   1.410       .  A
C946        C947   1.414       .  A
C946        H959   1.074       .  S
C947        C949   1.442       .  S
C948        N952   1.158       .  T
C949        N953   1.157       .  T
C950        N955   1.157       .  T
C951        N954   1.157       .  T
C960        C961   1.403       .  A
C960        C965   1.397       .  A
C960        C974   1.445       .  S
C961        C962   1.398       .  A
C961        C966   1.480       .  S
C962        C963   1.403       .  A
C962        H981   1.085       .  S
C963        C964   1.424       .  A
C963        C975   1.443       .  S
C964        C965   1.416       .  A
C965        H980   1.074       .  S
C966        C967   1.400       .  A
C966        C971   1.408       .  A
C967        C968   1.399       .  A
C967        H982   1.085       .  S
C968        C969   1.415       .  A
C968        C972   1.443       .  S
C969        C970   1.405       .  A
C970        C971   1.401       .  A
C970        H983   1.085       .  S
C971        C973   1.444       .  S
C972        N976   1.157       .  T
C973        N977   1.157       .  T
C974        N979   1.157       .  T
C975        N978   1.157       .  T
C984        C985   1.414       .  A
C984        C989   1.405       .  A
C984        C998   1.443       .  S
C985        C986   1.405       .  A
C985        C990   1.497       .  S
C986        C987   1.403       .  A
C986       H1005   1.085       .  S
C987        C988   1.415       .  A
C987        C999   1.444       .  S
C988        C989   1.403       .  A
C989       H1004   1.084       .  S
C990        C991   1.403       .  A
C990        C995   1.411       .  A
C991        C992   1.404       .  A
C991       H1006   1.085       .  S
C992        C993   1.418       .  A
C992        C996   1.441       .  S
C993        C994   1.410       .  A
C994        C995   1.406       .  A
C994       H1007   1.083       .  S
C995        C997   1.444       .  S
C996       N1000   1.157       .  T
C997       N1001   1.157       .  T
C998       N1003   1.157       .  T
C999       N1002   1.157       .  T
C1008      C1009   1.402       .  A
C1008      C1013   1.392       .  A
C1008      C1022   1.446       .  S
C1009      C1010   1.409       .  A
C1009      C1014   1.499       .  S
C1010      C1011   1.419       .  A
C1010      H1029   1.084       .  S
C1011      C1012   1.423       .  A
C1011      C1023   1.439       .  S
C1012      C1013   1.418       .  A
C1013      H1028   1.082       .  S
C1014      C1015   1.406       .  A
C1014      C1019   1.414       .  A
C1015      C1016   1.404       .  A
C1015      H1030   1.085       .  S
C1016      C1017   1.412       .  A
C1016      C1020   1.443       .  S
C1017      C1018   1.403       .  A
C1018      C1019   1.408       .  A
C1018      H1031   1.085       .  S
C1019      C1021   1.442       .  S
C1020      N1024   1.157       .  T
C1021      N1025   1.157       .  T
C1022      N1027   1.157       .  T
C1023      N1026   1.158       .  T
C1032      C1033   1.413       .  A
C1032      C1037   1.403       .  A
C1032      C1046   1.443       .  S
C1033      C1034   1.408       .  A
C1033      C1038   1.501       .  S
C1034      C1035   1.409       .  A
C1034      H1053   1.084       .  S
C1035      C1036   1.416       .  A
C1035      C1047   1.444       .  S
C1036      C1037   1.405       .  A
C1037      H1052   1.079       .  S
C1038      C1039   1.403       .  A
C1038      C1043   1.416       .  A
C1039      C1040   1.404       .  A
C1039      H1054   1.084       .  S
C1040      C1041   1.419       .  A
C1040      C1044   1.444       .  S
C1041      C1042   1.402       .  A
C1042      C1043   1.406       .  A
C1042      H1055   1.085       .  S
C1043      C1045   1.440       .  S
C1044      N1048   1.157       .  T
C1045      N1049   1.156       .  T
C1046      N1051   1.157       .  T
C1047      N1050   1.157       .  T
