geometry optimzed in LAMMPS
_audit_creation_date              2020-12-01 
_audit_creation_method            'lammps2cif' 
_symmetry_space_group_name_H-M    'P1' 
_symmetry_Int_Tables_number       1 
_symmetry_cell_setting            triclinic 
loop_ 
_symmetry_equiv_pos_as_xyz 
  x,y,z 
_cell_length_a                    28.22347731 
_cell_length_b                    27.875610552166773 
_cell_length_c                    29.370987259412924 
_cell_angle_alpha                 89.19766220122104 
_cell_angle_beta                  89.38668329552534 
_cell_angle_gamma                 91.13413180919534 
loop_ 
_atom_site_label 
_atom_site_type_symbol 
_atom_site_fract_x 
_atom_site_fract_y 
_atom_site_fract_z 
_atom_site_charge 
C1          C  0.38337202  0.38184242  0.08125339     0.42900
N2          N  0.43301015  0.44103918  0.07208682     0.01800
C3          C  0.44851352  0.09974573  0.38562228    -0.06100
H4          H  0.47583213  0.40912381  0.35123449     0.07300
C5          C  0.11900313  0.41744585  0.44840956    -0.06400
Co6        Co  0.40914133  0.00418728  0.49039270     0.74200
N7          N  0.45617215  0.45050946  0.40968989    -0.25600
Co8        Co  0.00649617  0.50710376  0.41694072     0.74100
C9          C  0.10750119  0.39802082  0.40351569     0.43000
N10         N  0.07457844  0.44951868  0.06057611     0.01400
N11         N  0.05809516  0.45348669  0.42111226     0.01500
N12         N  0.38647927  0.09487011  0.43450677    -0.46400
H13         H  0.34297538  0.40310105  0.01637626     0.07300
N14         N  0.41884762  0.44860512  0.43708996     0.01800
N15         N  0.06166452  0.05776183  0.42671064     0.01600
C16         C  0.10980083  0.11802382  0.41611937     0.43200
N17         N  0.03713140  0.44869208  0.08779440    -0.25000
C18         C  0.37056709  0.08281065  0.05638609    -0.06000
N19         N  0.42156989  0.40435708  0.09949154    -0.46200
N20         N  0.07205391  0.09413677  0.39879179    -0.46400
C21         C  0.38081875  0.09761807  0.10306714     0.42900
N22         N  0.41781269  0.06144279  0.44372895     0.01800
N23         N  0.03886915  0.04992851  0.08816721    -0.25100
N24         N  0.40409539  0.44428776  0.03716060    -0.25600
N25         N  0.07634826  0.05283509  0.06079306     0.01500
H26         H  0.01803764  0.09069634  0.14688274     0.07300
H27         H  0.15073658  0.09894063  0.48156199     0.07400
N28         N  0.45418257  0.06303554  0.41510415    -0.25600
N29         N  0.08689782  0.45144701  0.45625008    -0.25200
N30         N  0.43339802  0.04860395  0.08088754     0.01800
C31         C  0.40606120  0.39131226  0.39027512     0.43200
C32         C  0.04365444  0.41727381  0.12184793    -0.06500
N33         N  0.09057171  0.05575277  0.46159306    -0.25200
H34         H  0.14893549  0.41041552  0.46988623     0.07400
N35         N  0.38793638  0.41423026  0.42644054    -0.46400
H36         H  0.02070534  0.41251908  0.15136001     0.07300
C37         C  0.08672790  0.11143491  0.10766848     0.43000
C38         C  0.37162457  0.40859620  0.03995837    -0.06000
Co39       Co  0.48510715  0.99735070  0.08322521     0.73800
N40         N  0.10801740  0.42068349  0.07538546    -0.46200
C41         C  0.40348855  0.12125524  0.39858193     0.43300
N42         N  0.42009325  0.07470328  0.11591265    -0.46100
Co43       Co  0.08228855  0.50264952  0.00986090     0.73900
C44         C  0.12240461  0.09217192  0.45793002    -0.06500
C45         C  0.45139597  0.41564418  0.37898193    -0.06000
N46         N  0.40477011  0.05201716  0.04582686    -0.25600
N47         N  0.06982122  0.42303767  0.38863309    -0.46300
H48         H  0.47117761  0.10773546  0.35649351     0.07300
C49         C  0.04262455  0.08496831  0.11908280    -0.06500
Cl50       Cl  0.99899512  0.99978385  0.99849803    -0.49500
C51         C  0.09051857  0.39843997  0.11341476     0.43100
H52         H  0.33986754  0.08994987  0.03582652     0.07300
N53         N  0.10609976  0.08837697  0.07180389    -0.46200
C54         C  0.21869873  0.23127670  0.28241379    -0.02000
C55         C  0.22703747  0.28706289  0.27774694    -0.02000
C56         C  0.21750768  0.28371296  0.22511315    -0.02000
C57         C  0.20982402  0.22742266  0.22919833    -0.02000
C58         C  0.27337737  0.22342817  0.27454594    -0.02000
C59         C  0.26438739  0.21953520  0.22148663    -0.02000
C60         C  0.27250546  0.27497939  0.21586928    -0.02000
C61         C  0.28171660  0.27985147  0.26835375    -0.02000
C62         C  0.11344488  0.17643010  0.35227780    -0.11800
C63         C  0.13623271  0.15593658  0.38970089     0.05200
C64         C  0.18372955  0.16991437  0.39748514    -0.07100
C65         C  0.20905052  0.19538368  0.36325663    -0.07800
C66         C  0.18825665  0.20868731  0.32155593    -0.02400
C67         C  0.13839392  0.20419637  0.31960930     0.04400
N68         N  0.11160375  0.23086049  0.28774280     0.66900
H69         H  0.07560144  0.17094245  0.34821957     0.15800
H70         H  0.24517390  0.20560108  0.37032592     0.15600
N71         N  0.20749009  0.15814548  0.43879096     0.74600
O72         O  0.08226117  0.20877577  0.26309666    -0.38800
O73         O  0.10501002  0.27458601  0.29585466    -0.38700
O74         O  0.23463128  0.12272118  0.43966940    -0.39500
O75         O  0.21210312  0.18995648  0.46866982    -0.39500
C76         C  0.16540644  0.39008269  0.15510712    -0.11800
C77         C  0.11970137  0.37285759  0.14687588     0.05200
C78         C  0.10210049  0.33371951  0.17286935    -0.07100
C79         C  0.13327475  0.30782685  0.20040415    -0.07800
C80         C  0.18193496  0.32016142  0.20355041    -0.02400
C81         C  0.19544679  0.36626408  0.18539817     0.04400
N82         N  0.23944726  0.38910506  0.19653536     0.66900
H83         H  0.17724500  0.42327699  0.13863980     0.15800
H84         H  0.11978511  0.27530753  0.21552204     0.15600
N85         N  0.05314979  0.31919569  0.17106306     0.74600
O86         O  0.25469527  0.42588411  0.17500461    -0.38800
O87         O  0.26097063  0.37545943  0.23121392    -0.38700
O88         O  0.03466887  0.30790658  0.13367551    -0.39500
O89         O  0.02681113  0.32471878  0.20550245    -0.39500
C90         C  0.31886726  0.15750162  0.11394924    -0.11800
C91         C  0.35023001  0.12578901  0.13355622     0.05200
C92         C  0.34982049  0.12063812  0.18122249    -0.07100
C93         C  0.31977702  0.14875251  0.20760421    -0.07800
C94         C  0.28891108  0.18289485  0.18891658    -0.02400
C95         C  0.28716554  0.18407031  0.14006632     0.04400
N96         N  0.24919652  0.20317343  0.11471284     0.66900
H97         H  0.31707505  0.16037115  0.07716561     0.15800
H98         H  0.32267488  0.14323199  0.24300756     0.15600
N99         N  0.38078083  0.08850354  0.20407391     0.74600
O100        O  0.22036936  0.17215949  0.09987396    -0.38800
O101        O  0.25818966  0.23883173  0.08900676    -0.38700
O102        O  0.41800857  0.10521019  0.22186707    -0.39500
O103        O  0.36483187  0.04798265  0.21724451    -0.39500
C104        C  0.13015584  0.12386004  0.17986632    -0.11800
C105        C  0.11414560  0.14324506  0.13893255     0.05200
C106        C  0.12785421  0.19084382  0.12771617    -0.07100
C107        C  0.15740146  0.21722871  0.15741136    -0.07800
C108        C  0.17380827  0.19816963  0.19934360    -0.02400
C109        C  0.16076899  0.14970086  0.20862244     0.04400
N110        N  0.18434936  0.12259792  0.24208281     0.66900
H111        H  0.12190203  0.08654225  0.18802876     0.15800
H112        H  0.17120308  0.25129483  0.14479787     0.15600
N113        N  0.11598849  0.21154912  0.08456251     0.74600
O114        O  0.16119518  0.10997825  0.27732959    -0.38800
O115        O  0.21601591  0.09530810  0.22752714    -0.38700
O116        O  0.08597906  0.24438734  0.08285660    -0.39500
O117        O  0.14256803  0.20505991  0.05047567    -0.39500
C118        C  0.31495222  0.30307156  0.34334198    -0.11800
C119        C  0.31800492  0.31116980  0.29586314     0.05200
C120        C  0.35457970  0.34538506  0.28038042    -0.07100
C121        C  0.38255859  0.36910364  0.31268083    -0.07800
C122        C  0.37705867  0.36150355  0.35929738    -0.02400
C123        C  0.34285114  0.32778691  0.37468890     0.04400
N124        N  0.33559863  0.31793085  0.42208729     0.66900
H125        H  0.29153256  0.27535669  0.35667427     0.15800
H126        H  0.40871272  0.39543755  0.30065669     0.15600
N127        N  0.36794676  0.35689499  0.23395390     0.74600
O128        O  0.30427349  0.34075727  0.44312047    -0.38800
O129        O  0.34953956  0.27872488  0.43868342    -0.38700
O130        O  0.34287692  0.38470762  0.21089958    -0.39500
O131        O  0.41168278  0.35768935  0.22406946    -0.39500
C132        C  0.35473077  0.20898396  0.31037134    -0.11800
C133        C  0.30736862  0.19286891  0.30552150     0.05200
C134        C  0.29609174  0.14793048  0.32822239    -0.07100
C135        C  0.32610643  0.12979332  0.36175699    -0.07800
C136        C  0.37189961  0.14798569  0.36748112    -0.02400
C137        C  0.38705250  0.18673546  0.33951619     0.04400
N138        N  0.43498900  0.20412544  0.33977786     0.66900
H139        H  0.36768580  0.23907931  0.29104024     0.15800
H140        H  0.31544905  0.09684566  0.37944988     0.15600
N141        N  0.26168866  0.11407967  0.31245219     0.74600
O142        O  0.46323914  0.19018903  0.30932842    -0.38800
O143        O  0.44468563  0.24229545  0.36060726    -0.38700
O144        O  0.27769200  0.08168904  0.28731142    -0.39500
O145        O  0.22852527  0.10161776  0.33946241    -0.39500
C146        C  0.14560263  0.38335860  0.32754325    -0.11800
C147        C  0.13899124  0.36925718  0.37335779     0.05200
C148        C  0.16792485  0.33241822  0.39015184    -0.07100
C149        C  0.19836519  0.30851276  0.36016113    -0.07800
C150        C  0.20357082  0.32193028  0.31378520    -0.02400
C151        C  0.18670285  0.36883563  0.30405636     0.04400
N152        N  0.22130066  0.40734809  0.30026712     0.66900
H153        H  0.12835448  0.41561156  0.31591224     0.15800
H154        H  0.21864516  0.28064737  0.37463917     0.15600
N155        N  0.16642527  0.31778038  0.43695895     0.74600
O156        O  0.20949913  0.44792265  0.28497355    -0.38800
O157        O  0.26021216  0.40409105  0.32090211    -0.38700
O158        O  0.14612552  0.27846941  0.44778423    -0.39500
O159        O  0.19645535  0.33560169  0.46371728    -0.39500
C160        C  0.27977313  0.31704957  0.13922633    -0.11800
C161        C  0.30266387  0.29329137  0.17486339     0.05200
C162        C  0.35225730  0.28586313  0.16859360    -0.07100
C163        C  0.37751573  0.31340092  0.13567787    -0.07800
C164        C  0.35449959  0.34502572  0.10636680    -0.02400
C165        C  0.30465576  0.34299880  0.10537887     0.04400
N166        N  0.27838570  0.36590405  0.07024974     0.66900
H167        H  0.24198745  0.31380941  0.13599138     0.15800
H168        H  0.41580038  0.31107523  0.13408724     0.16600
N169        N  0.37850646  0.25135986  0.19396415     0.74600
O170        O  0.26395779  0.34105074  0.03743168    -0.38800
O171        O  0.25891505  0.40532678  0.07809923    -0.38700
O172        O  0.39256398  0.21540338  0.17257083    -0.39500
O173        O  0.40464440  0.26598525  0.22551964    -0.39500
C174        C  0.38642899  0.37792750  0.57996709     0.42900
N175        N  0.43461393  0.43828293  0.57123242     0.01800
C176        C  0.45121926  0.09871904  0.88556132    -0.06100
H177        H  0.47319988  0.41168781  0.85132923     0.07300
C178        C  0.11937693  0.41747510  0.94956531    -0.06400
Co179      Co  0.40995087  0.00471553  0.99122800     0.74200
N180        N  0.45462429  0.45285786  0.91029104    -0.25600
Co181      Co  0.00617792  0.50628333  0.91731627     0.74100
C182        C  0.10813950  0.39782176  0.90454129     0.43000
N183        N  0.07542594  0.44790801  0.55881761     0.01400
N184        N  0.05804737  0.45282700  0.92224097     0.01500
N185        N  0.38887036  0.09503208  0.93406740    -0.46400
H186        H  0.34584743  0.39865205  0.51499084     0.07300
N187        N  0.41732877  0.45145521  0.93771951     0.01800
N188        N  0.06342071  0.05652665  0.92487075     0.01600
C189        C  0.11147446  0.11672868  0.91430082     0.43200
N190        N  0.03828893  0.44726492  0.58642378    -0.25000
C191        C  0.37092184  0.08113181  0.55672331    -0.06000
N192        N  0.42404159  0.40118114  0.59836558    -0.46200
N193        N  0.07405443  0.09256966  0.89664792    -0.46400
C194        C  0.38186098  0.09563128  0.60327181     0.42900
N195        N  0.41965432  0.06121842  0.94375197     0.01800
N196        N  0.03857615  0.04851935  0.59020175    -0.25100
N197        N  0.40571521  0.44121020  0.53634743    -0.25600
N198        N  0.07568216  0.05152978  0.56235385     0.01500
H199        H  0.01856317  0.08932713  0.64918751     0.07300
H200        H  0.15165129  0.09869355  0.98036775     0.07400
N201        N  0.45626693  0.06209860  0.91538669    -0.25600
N202        N  0.08684717  0.45126131  0.95747241    -0.25200
N203        N  0.43398613  0.04661928  0.58031916     0.01800
C204        C  0.40344235  0.39465199  0.89061350     0.43200
C205        C  0.04435427  0.41456490  0.61949047    -0.06500
N206        N  0.09191445  0.05516742  0.96010220    -0.25200
H207        H  0.14943538  0.41059685  0.97097536     0.07400
N208        N  0.38577883  0.41769582  0.92692077    -0.46400
H209        H  0.02152415  0.40936077  0.64902871     0.07300
C210        C  0.08684215  0.10992705  0.60916947     0.43000
C211        C  0.37414941  0.40472108  0.53881419    -0.06000
Co212      Co  0.48569625  0.99525706  0.58139557     0.73800
N213        N  0.10821802  0.41770195  0.57243231    -0.46200
C214        C  0.40645064  0.12105682  0.89816034     0.43300
N215        N  0.42122936  0.07256209  0.61564044    -0.46100
Co216      Co  0.08340232  0.50189336  0.50885045     0.73900
C217        C  0.12364838  0.09156498  0.95646739    -0.06500
C218        C  0.44908082  0.41835803  0.87929522    -0.06000
N219        N  0.40489512  0.05040878  0.54563498    -0.25600
N220        N  0.07015915  0.42246158  0.88980404    -0.46300
H221        H  0.47427371  0.10655447  0.85664595     0.07300
C222        C  0.04287380  0.08344745  0.62119588    -0.06500
Cl223      Cl  0.99752967  0.00025086  0.50016464    -0.49500
C224        C  0.09063355  0.39470022  0.61006142     0.43100
H225        H  0.34007477  0.08855269  0.53646324     0.07300
N226        N  0.10560845  0.08701472  0.57298984    -0.46200
C227        C  0.22023676  0.23064168  0.78173789    -0.02000
C228        C  0.22740863  0.28657021  0.77701634    -0.02000
C229        C  0.21851299  0.28285525  0.72426125    -0.02000
C230        C  0.21182459  0.22647102  0.72849022    -0.02000
C231        C  0.27522006  0.22370248  0.77445592    -0.02000
C232        C  0.26658368  0.21942695  0.72129978    -0.02000
C233        C  0.27380186  0.27498903  0.71567541    -0.02000
C234        C  0.28232726  0.28027801  0.76820902    -0.02000
C235        C  0.11504305  0.17611409  0.85157497    -0.11800
C236        C  0.13806089  0.15456513  0.88824855     0.05200
C237        C  0.18602979  0.16702737  0.89542718    -0.07100
C238        C  0.21120807  0.19281856  0.86144275    -0.07800
C239        C  0.18995455  0.20745115  0.82042157    -0.02400
C240        C  0.13999473  0.20378991  0.81892941     0.04400
N241        N  0.11317017  0.23050268  0.78712238     0.66900
H242        H  0.07705738  0.17131232  0.84798490     0.15800
H243        H  0.24737524  0.20280330  0.86847502     0.15600
N244        N  0.21031101  0.15353879  0.93597472     0.74600
O245        O  0.08365877  0.20838290  0.76267996    -0.38800
O246        O  0.10658031  0.27423011  0.79522160    -0.38700
O247        O  0.24043885  0.12073735  0.93433462    -0.39500
O248        O  0.21149283  0.18237348  0.96870662    -0.39500
C249        C  0.16580702  0.38668775  0.65120219    -0.11800
C250        C  0.12011675  0.36918762  0.64339499     0.05200
C251        C  0.10266790  0.33058777  0.67024883    -0.07100
C252        C  0.13391968  0.30575593  0.69870069    -0.07800
C253        C  0.18256240  0.31844686  0.70174324    -0.02400
C254        C  0.19586274  0.36392416  0.68217523     0.04400
N255        N  0.23959156  0.38743625  0.69291048     0.66900
H256        H  0.17756395  0.41953542  0.63405827     0.15800
H257        H  0.12057737  0.27359433  0.71454990     0.15600
N258        N  0.05379860  0.31563052  0.66852565     0.74600
O259        O  0.25541503  0.42276389  0.66960748    -0.38800
O260        O  0.26053284  0.37564486  0.72851946    -0.38700
O261        O  0.03532885  0.30410351  0.63119343    -0.39500
O262        O  0.02746783  0.32082953  0.70302497    -0.39500
C263        C  0.32076464  0.15614583  0.61398508    -0.11800
C264        C  0.35212061  0.12459215  0.63369940     0.05200
C265        C  0.35272282  0.12065247  0.68137631    -0.07100
C266        C  0.32339174  0.14965319  0.70743203    -0.07800
C267        C  0.29169178  0.18298702  0.68882073    -0.02400
C268        C  0.28955459  0.18339628  0.63990140     0.04400
N269        N  0.25241752  0.20355284  0.61412034     0.66900
H270        H  0.31866272  0.15852921  0.57716289     0.15800
H271        H  0.32816014  0.14578732  0.74351661     0.15600
N272        N  0.38409928  0.08896487  0.70427742     0.74600
O273        O  0.22262736  0.17331679  0.59961917    -0.38800
O274        O  0.26325512  0.23788594  0.58740143    -0.38700
O275        O  0.42019150  0.10630732  0.72358327    -0.39500
O276        O  0.36942117  0.04736663  0.71549110    -0.39500
C277        C  0.13091631  0.12300026  0.68075373    -0.11800
C278        C  0.11478722  0.14195744  0.63973425     0.05200
C279        C  0.12929192  0.18907688  0.62754949    -0.07100
C280        C  0.15923857  0.21563471  0.65677734    -0.07800
C281        C  0.17578999  0.19697121  0.69881843    -0.02400
C282        C  0.16246820  0.14872595  0.70863068     0.04400
N283        N  0.18713393  0.12139175  0.74107622     0.66900
H284        H  0.12236593  0.08586227  0.68942579     0.15800
H285        H  0.17336599  0.24936670  0.64364558     0.15600
N286        N  0.11792979  0.20895457  0.58389133     0.74600
O287        O  0.16512613  0.10862005  0.77692740    -0.38800
O288        O  0.21799510  0.09396245  0.72518141    -0.38700
O289        O  0.09197973  0.24515824  0.58149985    -0.39500
O290        O  0.14170770  0.19735685  0.54926796    -0.39500
C291        C  0.31403095  0.30464297  0.84350547    -0.11800
C292        C  0.31687833  0.31306095  0.79602834     0.05200
C293        C  0.35190336  0.34882252  0.78065605    -0.07100
C294        C  0.37803896  0.37444865  0.81304864    -0.07800
C295        C  0.37402100  0.36528575  0.85960383    -0.02400
C296        C  0.34208719  0.32921865  0.87485587     0.04400
N297        N  0.33933871  0.31483785  0.92169587     0.66900
H298        H  0.29169699  0.27585123  0.85665626     0.15800
H299        H  0.40280927  0.40216578  0.80107639     0.15600
N300        N  0.36672939  0.35875390  0.73434379     0.74600
O301        O  0.31018005  0.33511439  0.94752945    -0.38800
O302        O  0.35477586  0.27431266  0.93329915    -0.38700
O303        O  0.34292278  0.38654340  0.70997747    -0.39500
O304        O  0.41073354  0.35859399  0.72584027    -0.39500
C305        C  0.35609072  0.21162492  0.81331913    -0.11800
C306        C  0.30975506  0.19340745  0.80560582     0.05200
C307        C  0.30021042  0.14658349  0.82554332    -0.07100
C308        C  0.33086557  0.12707904  0.85785329    -0.07800
C309        C  0.37507828  0.14749180  0.86661361    -0.02400
C310        C  0.38861517  0.18933225  0.84232836     0.04400
N311        N  0.43485298  0.21039727  0.84688409     0.66900
H312        H  0.36835392  0.24358069  0.79657784     0.15800
H313        H  0.32162212  0.09241945  0.87307786     0.15600
N314        N  0.26575387  0.11324718  0.80912085     0.74600
O315        O  0.46610891  0.20179534  0.81721499    -0.38800
O316        O  0.43999049  0.24685924  0.87145469    -0.38700
O317        O  0.28160996  0.08175109  0.78287763    -0.39500
O318        O  0.23327527  0.09965794  0.83644621    -0.39500
C319        C  0.14628686  0.38366988  0.82828482    -0.11800
C320        C  0.13962909  0.36911634  0.87397162     0.05200
C321        C  0.16786578  0.33134745  0.88998550    -0.07100
C322        C  0.19763450  0.30711325  0.85946210    -0.07800
C323        C  0.20317617  0.32106502  0.81318810    -0.02400
C324        C  0.18651968  0.36821373  0.80385246     0.04400
N325        N  0.22121382  0.40629075  0.79812334     0.66900
H326        H  0.12960318  0.41643448  0.81717474     0.15800
H327        H  0.21742255  0.27853824  0.87348076     0.15600
N328        N  0.16640904  0.31618107  0.93662043     0.74600
O329        O  0.20939994  0.44610414  0.78109511    -0.38800
O330        O  0.25970071  0.40428546  0.81960701    -0.38700
O331        O  0.14540693  0.27716306  0.94718994    -0.39500
O332        O  0.19693849  0.33313969  0.96334730    -0.39500
C333        C  0.28240955  0.31527595  0.63857680    -0.11800
C334        C  0.30476252  0.29284055  0.67521261     0.05200
C335        C  0.35447361  0.28529774  0.67004591    -0.07100
C336        C  0.38022069  0.31163376  0.63665965    -0.07800
C337        C  0.35753959  0.34170251  0.60567149    -0.02400
C338        C  0.30777763  0.33948767  0.60400816     0.04400
N339        N  0.28213838  0.35970915  0.56703494     0.66900
H340        H  0.24469389  0.31171351  0.63486278     0.15800
H341        H  0.41853969  0.30948040  0.63584352     0.16600
N342        N  0.38026937  0.25155002  0.69675634     0.74600
O343        O  0.27076774  0.33304693  0.53440912    -0.38800
O344        O  0.26043318  0.39835002  0.57258658    -0.38700
O345        O  0.39616723  0.21577423  0.67626690    -0.39500
O346        O  0.40430914  0.26688299  0.72949493    -0.39500
C347        C  0.38335317  0.88485307  0.08150809     0.42900
N348        N  0.43217803  0.94471667  0.07305011     0.01800
C349        C  0.44980966  0.59218753  0.38324097    -0.06100
H350        H  0.46815831  0.91838521  0.34825202     0.07300
C351        C  0.12190542  0.91679082  0.44899775    -0.06400
Co352      Co  0.41105485  0.49751557  0.48939051     0.74200
N353        N  0.45081120  0.95814107  0.40844179    -0.25600
Co354      Co  0.00869169  0.00543709  0.41736755     0.74100
C355        C  0.11074363  0.89748254  0.40382958     0.43000
N356        N  0.07808053  0.94777706  0.05917449     0.01400
N357        N  0.06092129  0.95259034  0.42162604     0.01500
N358        N  0.38699540  0.58663019  0.43116397    -0.46400
H359        H  0.34275592  0.90650745  0.01679546     0.07300
N360        N  0.41409730  0.95613378  0.43664758     0.01800
N361        N  0.06049774  0.55870423  0.42518783     0.01600
C362        C  0.10948228  0.61816021  0.41401971     0.43200
N363        N  0.04011163  0.94557733  0.08569454    -0.25000
C364        C  0.36624811  0.57470508  0.05527304    -0.06000
N365        N  0.42137224  0.90739779  0.09988683    -0.46200
N366        N  0.07110612  0.59491709  0.39709855    -0.46400
C367        C  0.37469338  0.58857281  0.10247842     0.42900
N368        N  0.41890036  0.55401200  0.44142771     0.01800
N369        N  0.03777556  0.55293328  0.08890852    -0.25100
N370        N  0.40318180  0.94835967  0.03826820    -0.25600
N371        N  0.07485740  0.55465485  0.06101550     0.01500
H372        H  0.01826254  0.59525397  0.14699915     0.07300
H373        H  0.15084598  0.59842067  0.47901469     0.07400
N374        N  0.45578318  0.55594462  0.41337423    -0.25600
N375        N  0.08952157  0.95067833  0.45694966    -0.25200
N376        N  0.43123662  0.54456557  0.07971601     0.01800
C377        C  0.39920964  0.90053456  0.38844654     0.43200
C378        C  0.04681812  0.91378911  0.11936437    -0.06500
N379        N  0.08991589  0.55621945  0.45968075    -0.25200
H380        H  0.15159443  0.90936494  0.47069826     0.07400
N381        N  0.38225160  0.92258066  0.42573113    -0.46400
H382        H  0.02350782  0.90799577  0.14846884     0.07300
C383        C  0.08671571  0.61394723  0.10662054     0.43000
C384        C  0.37109964  0.91227454  0.04066781    -0.06000
Co385      Co  0.48480012  0.49516634  0.08271300     0.73800
N386        N  0.11205136  0.91972592  0.07410798    -0.46200
C387        C  0.40412136  0.61306136  0.39526646     0.43300
N388        N  0.41555310  0.56856553  0.11518694    -0.46100
Co389      Co  0.08547297  0.00134474  0.00930834     0.73900
C390        C  0.12220525  0.59210792  0.45563502    -0.06500
C391        C  0.44447446  0.92459326  0.37666223    -0.06000
N392        N  0.40286799  0.54704520  0.04439276    -0.25600
N393        N  0.07294574  0.92236009  0.38907565    -0.46300
H394        H  0.47301023  0.60070223  0.35459643     0.07300
C395        C  0.04240644  0.58852401  0.11907173    -0.06500
Cl396      Cl  0.99574467  0.50300605  0.00038931    -0.49500
C397        C  0.09442180  0.89656445  0.11150448     0.43100
H398        H  0.33511004  0.57959236  0.03469919     0.07300
N399        N  0.10533732  0.58980131  0.07108914    -0.46200
C400        C  0.22034861  0.73027368  0.28114758    -0.02000
C401        C  0.22935371  0.78590174  0.27678893    -0.02000
C402        C  0.22031509  0.78324860  0.22421663    -0.02000
C403        C  0.21174353  0.72700553  0.22795916    -0.02000
C404        C  0.27499639  0.72166634  0.27353566    -0.02000
C405        C  0.26609939  0.71842860  0.22008907    -0.02000
C406        C  0.27497622  0.77375663  0.21491164    -0.02000
C407        C  0.28386593  0.77791995  0.26791472    -0.02000
C408        C  0.11391839  0.67684650  0.35031334    -0.11800
C409        C  0.13636048  0.65578458  0.38763922     0.05200
C410        C  0.18403472  0.66902573  0.39559475    -0.07100
C411        C  0.20978642  0.69442939  0.36165647    -0.07800
C412        C  0.18926878  0.70831064  0.32005404    -0.02400
C413        C  0.13932134  0.70459613  0.31792612     0.04400
N414        N  0.11296247  0.73185816  0.28614357     0.66900
H415        H  0.07603439  0.67183928  0.34613903     0.15800
H416        H  0.24614449  0.70373806  0.36870178     0.15600
N417        N  0.20766284  0.65615684  0.43666297     0.74600
O418        O  0.08294461  0.71045638  0.26169890    -0.38800
O419        O  0.10751645  0.77579229  0.29410948    -0.38700
O420        O  0.23515887  0.62100735  0.43669115    -0.39500
O421        O  0.21124998  0.68671491  0.46780729    -0.39500
C422        C  0.16856309  0.89047329  0.15498717    -0.11800
C423        C  0.12361900  0.87192300  0.14537518     0.05200
C424        C  0.10647233  0.83184954  0.17001769    -0.07100
C425        C  0.13708196  0.80727178  0.19889257    -0.07800
C426        C  0.18542158  0.82035166  0.20301075    -0.02400
C427        C  0.19897452  0.86680547  0.18515171     0.04400
N428        N  0.24384903  0.88948867  0.19460161     0.66900
H429        H  0.17989744  0.92398171  0.13880121     0.15800
H430        H  0.12374389  0.77456576  0.21369387     0.15600
N431        N  0.05911187  0.81379035  0.16384923     0.74600
O432        O  0.25811402  0.92635480  0.17260820    -0.38800
O433        O  0.26921824  0.87359956  0.22586047    -0.38700
O434        O  0.04627404  0.79871552  0.12548909    -0.39500
O435        O  0.02854637  0.81860313  0.19502890    -0.39500
C436        C  0.31110372  0.64655414  0.11271240    -0.11800
C437        C  0.34333362  0.61616228  0.13263804     0.05200
C438        C  0.34621461  0.61506664  0.18016628    -0.07100
C439        C  0.31898643  0.64621558  0.20636561    -0.07800
C440        C  0.28851062  0.68060770  0.18704833    -0.02400
C441        C  0.28444882  0.67887475  0.13811642     0.04400
N442        N  0.25646719  0.70938777  0.11047658     0.66900
H443        H  0.30822356  0.64759470  0.07600509     0.15800
H444        H  0.32459263  0.64338022  0.23993973     0.15600
N445        N  0.37754749  0.58358061  0.20338362     0.74600
O446        O  0.22284158  0.68869681  0.09022836    -0.38800
O447        O  0.27899889  0.74076251  0.08724393    -0.38700
O448        O  0.41570645  0.60049676  0.21911861    -0.39500
O449        O  0.36160430  0.54381175  0.21855834    -0.39500
C450        C  0.12910056  0.62617282  0.17875144    -0.11800
C451        C  0.11510496  0.64548617  0.13709854     0.05200
C452        C  0.13146405  0.69225238  0.12498185    -0.07100
C453        C  0.16106993  0.71767866  0.15549619    -0.07800
C454        C  0.17557129  0.69850227  0.19790413    -0.02400
C455        C  0.16051771  0.65075455  0.20748840     0.04400
N456        N  0.18343553  0.62245223  0.24048058     0.66900
H457        H  0.11898992  0.58938025  0.18735012     0.15800
H458        H  0.17668186  0.75119302  0.14344937     0.15600
N459        N  0.12227053  0.71316620  0.08082120     0.74600
O460        O  0.16026575  0.61049880  0.27590452    -0.38800
O461        O  0.21337350  0.59368097  0.22515113    -0.38700
O462        O  0.12267371  0.75821508  0.07563203    -0.39500
O463        O  0.12227962  0.68748233  0.04577232    -0.39500
C464        C  0.31658228  0.80181524  0.34413233    -0.11800
C465        C  0.31848536  0.80957294  0.29657560     0.05200
C466        C  0.35129094  0.84629790  0.28057240    -0.07100
C467        C  0.37449432  0.87611170  0.31164794    -0.07800
C468        C  0.37084196  0.86866909  0.35851008    -0.02400
C469        C  0.34258570  0.82988323  0.37474448     0.04400
N470        N  0.34211156  0.81624892  0.42173336     0.66900
H471        H  0.29645422  0.77167472  0.35786683     0.15800
H472        H  0.39787945  0.90441513  0.29837356     0.15600
N473        N  0.36884745  0.85074981  0.23497197     0.74600
O474        O  0.30991260  0.83187206  0.44724586    -0.38800
O475        O  0.36403052  0.77927795  0.43396927    -0.38700
O476        O  0.35579538  0.88598995  0.21114446    -0.39500
O477        O  0.41061084  0.83683978  0.22833339    -0.39500
C478        C  0.35616328  0.70635012  0.31083067    -0.11800
C479        C  0.30863823  0.69066129  0.30481782     0.05200
C480        C  0.29688743  0.64499854  0.32601688    -0.07100
C481        C  0.32693966  0.62462360  0.35841951    -0.07800
C482        C  0.37302074  0.64162995  0.36474978    -0.02400
C483        C  0.38839669  0.68189072  0.33874700     0.04400
N484        N  0.43637990  0.69898304  0.34026661     0.66900
H485        H  0.36948875  0.73785504  0.29345528     0.15800
H486        H  0.31581980  0.59110129  0.37484914     0.15600
N487        N  0.26126367  0.61283257  0.30978010     0.74600
O488        O  0.46378392  0.69077452  0.30715609    -0.38800
O489        O  0.44708775  0.73215779  0.36728937    -0.38700
O490        O  0.27597307  0.58076850  0.28356134    -0.39500
O491        O  0.22820908  0.60054979  0.33698310    -0.39500
C492        C  0.14727234  0.88238350  0.32726759    -0.11800
C493        C  0.14203990  0.86867612  0.37326030     0.05200
C494        C  0.17151630  0.83205069  0.38948022    -0.07100
C495        C  0.20170929  0.80822416  0.35908868    -0.07800
C496        C  0.20591069  0.82112369  0.31252630    -0.02400
C497        C  0.18667952  0.86682421  0.30175626     0.04400
N498        N  0.21911084  0.90557753  0.29059487     0.66900
H499        H  0.12939928  0.91434152  0.31580926     0.15800
H500        H  0.22237057  0.78029919  0.37316306     0.15600
N501        N  0.17036959  0.81716280  0.43617586     0.74600
O502        O  0.20400386  0.94334434  0.27196691    -0.38800
O503        O  0.25840165  0.90774980  0.31080845    -0.38700
O504        O  0.14859674  0.77871497  0.44722945    -0.39500
O505        O  0.20128224  0.83389818  0.46261767    -0.39500
C506        C  0.28081327  0.81788220  0.13877733    -0.11800
C507        C  0.30416543  0.79267645  0.17325063     0.05200
C508        C  0.35299251  0.78383288  0.16447146    -0.07100
C509        C  0.37831018  0.81369557  0.13330583    -0.07800
C510        C  0.35505631  0.84726590  0.10615432    -0.02400
C511        C  0.30529390  0.84501986  0.10547393     0.04400
N512        N  0.27893119  0.86656117  0.06969588     0.66900
H513        H  0.24318030  0.81345548  0.13503771     0.15800
H514        H  0.41639670  0.81027939  0.13013742     0.16600
N515        N  0.37652970  0.74244459  0.18148388     0.74600
O516        O  0.26279047  0.84011150  0.03877174    -0.38800
O517        O  0.26181321  0.90757134  0.07506583    -0.38700
O518        O  0.39080586  0.71258652  0.15277015    -0.39500
O519        O  0.39770772  0.74448797  0.21885824    -0.39500
C520        C  0.38446283  0.88299626  0.57895708     0.42900
N521        N  0.43286526  0.94304861  0.57072494     0.01800
C522        C  0.45167687  0.59563167  0.88515556    -0.06100
H523        H  0.47026774  0.91696555  0.85058502     0.07300
C524        C  0.12423197  0.91641766  0.94958950    -0.06400
Co525      Co  0.41022317  0.50045823  0.99002744     0.74200
N526        N  0.45271230  0.95702341  0.91053073    -0.25600
Co527      Co  0.01081159  0.00371733  0.91565786     0.74100
C528        C  0.11309735  0.89599057  0.90482013     0.43000
N529        N  0.07654715  0.94642814  0.55947840     0.01400
N530        N  0.06314477  0.95132246  0.92144968     0.01500
N531        N  0.38888132  0.59139933  0.93307342    -0.46400
H532        H  0.34245118  0.90581624  0.51544461     0.07300
N533        N  0.41555566  0.95573772  0.93821526     0.01800
N534        N  0.06026947  0.55799875  0.92506853     0.01600
C535        C  0.11093167  0.61574166  0.91228665     0.43200
N536        N  0.03878074  0.94398993  0.58630027    -0.25000
C537        C  0.36820898  0.57324690  0.55491444    -0.06000
N538        N  0.42268590  0.90529204  0.59707370    -0.46200
N539        N  0.07211825  0.59283266  0.89580583    -0.46400
C540        C  0.37777855  0.58790202  0.60180985     0.42900
N541        N  0.41938464  0.55716542  0.94243931     0.01800
N542        N  0.04089545  0.55176363  0.58870018    -0.25100
N543        N  0.40328083  0.94720548  0.53649689    -0.25600
N544        N  0.07763590  0.55305502  0.56045316     0.01500
H545        H  0.02297363  0.59411888  0.64726643     0.07300
H546        H  0.15130327  0.59719381  0.97818992     0.07400
N547        N  0.45623705  0.55840166  0.91437368    -0.25600
N548        N  0.09166622  0.95029588  0.95685588    -0.25200
N549        N  0.43264390  0.54183995  0.57908334     0.01800
C550        C  0.40060881  0.90021685  0.88993814     0.43200
C551        C  0.04563647  0.91145240  0.61938631    -0.06500
N552        N  0.08927314  0.55611734  0.95991475    -0.25200
H553        H  0.15384417  0.90972533  0.97155162     0.07400
N554        N  0.38337989  0.92268689  0.92688229    -0.46400
H555        H  0.02261078  0.90525885  0.64863802     0.07300
C556        C  0.09122905  0.61175234  0.60614000     0.43000
C557        C  0.37129639  0.91107562  0.53884277    -0.06000
Co558      Co  0.48593785  0.49231626  0.58186298     0.73800
N559        N  0.11046780  0.91788719  0.57371344    -0.46200
C560        C  0.40699303  0.61810589  0.89776123     0.43300
N561        N  0.41822442  0.56699467  0.61428027    -0.46100
Co562      Co  0.08403031  0.00090987  0.51020248     0.73900
C563        C  0.12247060  0.59104866  0.95498181    -0.06500
C564        C  0.44641318  0.92342378  0.87880612    -0.06000
N565        N  0.40391222  0.54435027  0.54400675    -0.25600
N566        N  0.07521375  0.92036008  0.88962462    -0.46300
H567        H  0.47534523  0.60412876  0.85687335     0.07300
C568        C  0.04663120  0.58705063  0.61904560    -0.06500
Cl569      Cl  0.99683896  0.50311732  0.50001258    -0.49500
C570        C  0.09311960  0.89404382  0.61087331     0.43100
H571        H  0.33717523  0.57907127  0.53442945     0.07300
N572        N  0.10892484  0.58750421  0.57031578    -0.46200
C573        C  0.22334306  0.72949023  0.78039022    -0.02000
C574        C  0.23069703  0.78536648  0.77637691    -0.02000
C575        C  0.22190193  0.78279271  0.72372293    -0.02000
C576        C  0.21518876  0.72630988  0.72712526    -0.02000
C577        C  0.27834612  0.72269008  0.77301481    -0.02000
C578        C  0.26984926  0.71943143  0.71951590    -0.02000
C579        C  0.27695688  0.77499943  0.71473878    -0.02000
C580        C  0.28549412  0.77919041  0.76767471    -0.02000
C581        C  0.11662371  0.67382070  0.84800617    -0.11800
C582        C  0.13875898  0.65227109  0.88525640     0.05200
C583        C  0.18667225  0.66469779  0.89316417    -0.07100
C584        C  0.21247924  0.69111244  0.85991395    -0.07800
C585        C  0.19212992  0.70617735  0.81861507    -0.02400
C586        C  0.14218211  0.70213194  0.81610521     0.04400
N587        N  0.11587232  0.72939833  0.78426879     0.66900
H588        H  0.07873500  0.66904192  0.84368468     0.15800
H589        H  0.24862471  0.70073915  0.86750695     0.15600
N590        N  0.21043751  0.65025710  0.93368256     0.74600
O591        O  0.08589949  0.70794646  0.75980672    -0.38800
O592        O  0.11040154  0.77334738  0.79213987    -0.38700
O593        O  0.23816347  0.61533118  0.93232608    -0.39500
O594        O  0.21365631  0.67932819  0.96611338    -0.39500
C595        C  0.16689790  0.88944025  0.65534933    -0.11800
C596        C  0.12285228  0.86949861  0.64452996     0.05200
C597        C  0.10713639  0.82784483  0.66752263    -0.07100
C598        C  0.13805453  0.80393909  0.69669893    -0.07800
C599        C  0.18579428  0.81881513  0.70223233    -0.02400
C600        C  0.19791402  0.86596512  0.68512781     0.04400
N601        N  0.24215807  0.88958629  0.69486925     0.66900
H602        H  0.17717475  0.92381183  0.64023681     0.15800
H603        H  0.12553475  0.77058189  0.71078348     0.15600
N604        N  0.06129321  0.80725580  0.65876551     0.74600
O605        O  0.25667162  0.92565642  0.67182967    -0.38800
O606        O  0.26711492  0.87472819  0.72686697    -0.38700
O607        O  0.05236951  0.79007070  0.62019552    -0.39500
O608        O  0.02799160  0.81224574  0.68719488    -0.39500
C609        C  0.31531713  0.64705721  0.61226273    -0.11800
C610        C  0.34778356  0.61695436  0.63206104     0.05200
C611        C  0.35233669  0.61759264  0.67951933    -0.07100
C612        C  0.32560389  0.64934178  0.70537125    -0.07800
C613        C  0.29355012  0.68229477  0.68643697    -0.02400
C614        C  0.28894836  0.67973744  0.63750121     0.04400
N615        N  0.26110569  0.71006371  0.60957592     0.66900
H616        H  0.31182522  0.64739739  0.57554690     0.15800
H617        H  0.33336105  0.64858382  0.74009136     0.15600
N618        N  0.38518825  0.58761739  0.70255104     0.74600
O619        O  0.22850306  0.68897892  0.58820189    -0.38800
O620        O  0.28368172  0.74206597  0.58721596    -0.38700
O621        O  0.42153408  0.60648352  0.72013399    -0.39500
O622        O  0.37211761  0.54588896  0.71504410    -0.39500
C623        C  0.13436556  0.62431253  0.67772512    -0.11800
C624        C  0.12032904  0.64329512  0.63595223     0.05200
C625        C  0.13718268  0.68974400  0.62317989    -0.07100
C626        C  0.16617015  0.71569270  0.65385719    -0.07800
C627        C  0.18013806  0.69704946  0.69662627    -0.02400
C628        C  0.16566794  0.64921659  0.70628644     0.04400
N629        N  0.18932475  0.62119546  0.73895736     0.66900
H630        H  0.12439104  0.58754177  0.68655109     0.15800
H631        H  0.18153764  0.74939130  0.64196673     0.15600
N632        N  0.12929657  0.70967729  0.57830758     0.74600
O633        O  0.16641801  0.60815783  0.77420819    -0.38800
O634        O  0.22012988  0.59353934  0.72332783    -0.38700
O635        O  0.13217482  0.75451082  0.57172020    -0.39500
O636        O  0.12879951  0.68288791  0.54402502    -0.39500
C637        C  0.31684686  0.80370900  0.84405659    -0.11800
C638        C  0.31913271  0.81182419  0.79650232     0.05200
C639        C  0.35209828  0.84876824  0.78089506    -0.07100
C640        C  0.37572357  0.87763533  0.81256471    -0.07800
C641        C  0.37197891  0.86937163  0.85936472    -0.02400
C642        C  0.34299692  0.83098839  0.87510581     0.04400
N643        N  0.34257325  0.81641055  0.92191530     0.66900
H644        H  0.29688781  0.77327495  0.85739274     0.15800
H645        H  0.39929254  0.90604952  0.79982085     0.15600
N646        N  0.36879010  0.85494664  0.73499905     0.74600
O647        O  0.30856413  0.82852651  0.94714943    -0.38800
O648        O  0.36748330  0.78143863  0.93398366    -0.38700
O649        O  0.35228856  0.88857396  0.71122911    -0.39500
O650        O  0.41161536  0.84500210  0.72763468    -0.39500
C651        C  0.35887860  0.71057633  0.81293238    -0.11800
C652        C  0.31252008  0.69260561  0.80451513     0.05200
C653        C  0.30226957  0.64596225  0.82417075    -0.07100
C654        C  0.33185986  0.62624861  0.85722099    -0.07800
C655        C  0.37631155  0.64581687  0.86641287    -0.02400
C656        C  0.39074156  0.68769133  0.84236068     0.04400
N657        N  0.43723487  0.70806401  0.84739099     0.66900
H658        H  0.37179503  0.74255768  0.79619321     0.15800
H659        H  0.32185427  0.59170677  0.87227858     0.15600
N660        N  0.26844034  0.61285966  0.80644717     0.74600
O661        O  0.47005968  0.69448298  0.82137256    -0.38800
O662        O  0.44195509  0.74774009  0.86717011    -0.38700
O663        O  0.28511376  0.58223318  0.77975373    -0.39500
O664        O  0.23545579  0.59844985  0.83284803    -0.39500
C665        C  0.14819614  0.88014213  0.82803636    -0.11800
C666        C  0.14430070  0.86712988  0.87431772     0.05200
C667        C  0.17404106  0.83050196  0.89015335    -0.07100
C668        C  0.20288673  0.80602014  0.85903876    -0.07800
C669        C  0.20682540  0.81959652  0.81257250    -0.02400
C670        C  0.18785692  0.86555478  0.80253283     0.04400
N671        N  0.22054616  0.90481002  0.79390344     0.66900
H672        H  0.12969184  0.91169247  0.81652038     0.15800
H673        H  0.22297378  0.77735576  0.87255921     0.15600
N674        N  0.17513093  0.81682734  0.93714052     0.74600
O675        O  0.20595592  0.94334154  0.77632851    -0.38800
O676        O  0.25937592  0.90598964  0.81494573    -0.38700
O677        O  0.15924340  0.77590401  0.94913953    -0.39500
O678        O  0.20396204  0.83824402  0.96271515    -0.39500
C679        C  0.28251756  0.81897930  0.63901311    -0.11800
C680        C  0.30619324  0.79441087  0.67366246     0.05200
C681        C  0.35519398  0.78583540  0.66536181    -0.07100
C682        C  0.38000323  0.81413213  0.63278277    -0.07800
C683        C  0.35637650  0.84606892  0.60429488    -0.02400
C684        C  0.30663542  0.84442512  0.60443763     0.04400
N685        N  0.27994071  0.86370496  0.56773213     0.66900
H686        H  0.24490108  0.81440312  0.63555426     0.15800
H687        H  0.41814014  0.81099878  0.62976578     0.16600
N688        N  0.37989243  0.74658438  0.68522359     0.74600
O689        O  0.27185068  0.83740516  0.53399953    -0.38800
O690        O  0.25382286  0.89914336  0.57454399    -0.38700
O691        O  0.39546601  0.71531413  0.65857781    -0.39500
O692        O  0.40119087  0.75244579  0.72216753    -0.39500
C693        C  0.88467646  0.38503626  0.08273920     0.42900
N694        N  0.93254943  0.44562795  0.07406119     0.01800
C695        C  0.95167902  0.09562840  0.38531820    -0.06100
H696        H  0.96907111  0.41343849  0.35238976     0.07300
C697        C  0.62310822  0.41680576  0.44822286    -0.06400
Co698      Co  0.91109849  0.00064990  0.49034399     0.74200
N699        N  0.95175591  0.45524378  0.41124257    -0.25600
Co700      Co  0.50874332  0.50395831  0.41655254     0.74100
C701        C  0.61203425  0.39739729  0.40308851     0.43000
N702        N  0.57622215  0.44828231  0.06023985     0.01400
N703        N  0.56190399  0.45216608  0.42076694     0.01500
N704        N  0.88909084  0.09092955  0.43348082    -0.46400
H705        H  0.84402068  0.40540117  0.01776338     0.07300
N706        N  0.91485382  0.45447693  0.43925814     0.01800
N707        N  0.55916798  0.06096283  0.42566169     0.01600
C708        C  0.60916542  0.11959806  0.41494182     0.43200
N709        N  0.53848259  0.44591856  0.08712393    -0.25000
C710        C  0.86819530  0.07375634  0.05345541    -0.06000
N711        N  0.92234248  0.40828677  0.10109545    -0.46200
N712        N  0.57029583  0.09733039  0.39797496    -0.46400
C713        C  0.87699025  0.08810814  0.10061697     0.42900
N714        N  0.92016412  0.05730183  0.44300446     0.01800
N715        N  0.53833414  0.05065803  0.09022711    -0.25100
N716        N  0.90345231  0.44852305  0.03928311    -0.25600
N717        N  0.57536733  0.05301128  0.06230921     0.01500
H718        H  0.51854551  0.09230151  0.14870965     0.07300
H719        H  0.65074059  0.09794555  0.47927434     0.07400
N720        N  0.95689743  0.05867719  0.41478503    -0.25600
N721        N  0.59044239  0.45047424  0.45611966    -0.25200
N722        N  0.93359947  0.04426924  0.07746288     0.01800
C723        C  0.89953920  0.39747545  0.39231733     0.43200
C724        C  0.54615551  0.41484717  0.12127814    -0.06500
N725        N  0.58866077  0.05742993  0.45998970    -0.25200
H726        H  0.65276852  0.40933054  0.46998544     0.07400
N727        N  0.88262229  0.42099289  0.42887251    -0.46400
H728        H  0.52330589  0.40940663  0.15076444     0.07300
C729        C  0.58691133  0.11181125  0.10848868     0.43000
C730        C  0.87204012  0.41193005  0.04180085    -0.06000
Co731      Co  0.98697132  0.99494723  0.08101464     0.73800
N732        N  0.61076466  0.42093583  0.07530810    -0.46200
C733        C  0.90664715  0.11752750  0.39793888     0.43300
N734        N  0.91809805  0.06840474  0.11289173    -0.46100
Co735      Co  0.58300737  0.50222651  0.01029844     0.73900
C736        C  0.62156711  0.09278861  0.45624901    -0.06500
C737        C  0.94531061  0.42063534  0.38050097    -0.06000
N738        N  0.90496004  0.04623580  0.04230042    -0.25600
N739        N  0.57415512  0.42201395  0.38824583    -0.46300
H740        H  0.97491063  0.10414750  0.35668861     0.07300
C741        C  0.54285239  0.08585057  0.12084516    -0.06500
Cl742      Cl  0.49627458  0.00318602  0.00053638    -0.49500
C743        C  0.59403401  0.39806838  0.11328404     0.43100
H744        H  0.83680322  0.07829182  0.03316706     0.07300
N745        N  0.60553997  0.08838286  0.07255909    -0.46200
C746        C  0.72192220  0.22865132  0.28065581    -0.02000
C747        C  0.73024599  0.28438827  0.27656203    -0.02000
C748        C  0.72172209  0.28194616  0.22382469    -0.02000
C749        C  0.71363198  0.22561962  0.22740025    -0.02000
C750        C  0.77676557  0.22065173  0.27334524    -0.02000
C751        C  0.76821228  0.21741421  0.21985382    -0.02000
C752        C  0.77661814  0.27288890  0.21503300    -0.02000
C753        C  0.78488236  0.27704344  0.26821610    -0.02000
C754        C  0.61499641  0.17777572  0.35108102    -0.11800
C755        C  0.63729159  0.15568444  0.38792061     0.05200
C756        C  0.68580520  0.16605848  0.39450030    -0.07100
C757        C  0.71175603  0.19053941  0.36015506    -0.07800
C758        C  0.69089634  0.20592329  0.31918260    -0.02400
C759        C  0.64080128  0.20409753  0.31799262     0.04400
N760        N  0.61471489  0.23148722  0.28613136     0.66900
H761        H  0.57684691  0.17458699  0.34774436     0.15800
H762        H  0.74825491  0.19918881  0.36700287     0.15600
N763        N  0.70980985  0.15206259  0.43502119     0.74600
O764        O  0.58523167  0.20996423  0.26119957    -0.38800
O765        O  0.60833360  0.27513514  0.29474836    -0.38700
O766        O  0.73595864  0.11587632  0.43429362    -0.39500
O767        O  0.71540400  0.18240189  0.46610775    -0.39500
C768        C  0.67011521  0.38933715  0.15386752    -0.11800
C769        C  0.62398225  0.37251819  0.14639349     0.05200
C770        C  0.60676407  0.33333576  0.17247514    -0.07100
C771        C  0.63821761  0.30733152  0.19950378    -0.07800
C772        C  0.68694659  0.31929668  0.20231192    -0.02400
C773        C  0.70076952  0.36538765  0.18377586     0.04400
N774        N  0.74575794  0.38790041  0.19309745     0.66900
H775        H  0.68190448  0.42228156  0.13693177     0.15800
H776        H  0.62477881  0.27483053  0.21453535     0.15600
N777        N  0.55782417  0.31869441  0.17121233     0.74600
O778        O  0.76057801  0.42402013  0.17032776    -0.38800
O779        O  0.77060481  0.37273098  0.22508391    -0.38700
O780        O  0.53925741  0.30588193  0.13430608    -0.39500
O781        O  0.53169070  0.32480989  0.20568951    -0.39500
C782        C  0.81191620  0.14448359  0.11231649    -0.11800
C783        C  0.84582612  0.11546583  0.13144240     0.05200
C784        C  0.85085206  0.11588424  0.17891942    -0.07100
C785        C  0.82350959  0.14667371  0.20530721    -0.07800
C786        C  0.79124979  0.17973491  0.18682970    -0.02400
C787        C  0.78595233  0.17719878  0.13803279     0.04400
N788        N  0.75839525  0.20841026  0.11077146     0.66900
H789        H  0.80763142  0.14469752  0.07568339     0.15800
H790        H  0.83147689  0.14564635  0.24016554     0.15600
N791        N  0.88536238  0.08732670  0.20130342     0.74600
O792        O  0.72344670  0.18887621  0.09162382    -0.38800
O793        O  0.78157155  0.23864441  0.08672709    -0.38700
O794        O  0.92496213  0.10620409  0.21089093    -0.39500
O795        O  0.87218813  0.04907664  0.22159632    -0.39500
C796        C  0.63030401  0.12427311  0.18025111    -0.11800
C797        C  0.61517187  0.14338787  0.13896699     0.05200
C798        C  0.63034074  0.19030063  0.12680423    -0.07100
C799        C  0.66065578  0.21626583  0.15614250    -0.07800
C800        C  0.67689800  0.19708406  0.19799165    -0.02400
C801        C  0.66213524  0.14934999  0.20822065     0.04400
N802        N  0.68572595  0.12158223  0.24110784     0.66900
H803        H  0.62075052  0.08740117  0.18907912     0.15800
H804        H  0.67510580  0.25003523  0.14340524     0.15600
N805        N  0.61840077  0.21093815  0.08352833     0.74600
O806        O  0.66255067  0.10806500  0.27607406    -0.38800
O807        O  0.71711356  0.09449000  0.22571071    -0.38700
O808        O  0.60028174  0.25190205  0.08169555    -0.39500
O809        O  0.63388363  0.19269839  0.04734040    -0.39500
C810        C  0.81462293  0.30124966  0.34581391    -0.11800
C811        C  0.81820313  0.30885555  0.29822332     0.05200
C812        C  0.85233125  0.34458700  0.28320741    -0.07100
C813        C  0.87580215  0.37347393  0.31493614    -0.07800
C814        C  0.87058166  0.36638684  0.36181926    -0.02400
C815        C  0.84036713  0.32864407  0.37728618     0.04400
N816        N  0.83721850  0.31548829  0.42438805     0.66900
H817        H  0.79345268  0.27154460  0.35890883     0.15800
H818        H  0.90038657  0.40094955  0.30214081     0.15600
N819        N  0.87044911  0.34889484  0.23784213     0.74600
O820        O  0.80597815  0.33448435  0.44881173    -0.38800
O821        O  0.85474922  0.27639281  0.43748002    -0.38700
O822        O  0.85808517  0.38435069  0.21394816    -0.39500
O823        O  0.91194422  0.33411878  0.23145736    -0.39500
C824        C  0.85741148  0.20869140  0.31289895    -0.11800
C825        C  0.81119321  0.19031508  0.30442503     0.05200
C826        C  0.80134414  0.14346931  0.32397559    -0.07100
C827        C  0.83160697  0.12359847  0.35645920    -0.07800
C828        C  0.87537948  0.14435299  0.36649524    -0.02400
C829        C  0.88896963  0.18683943  0.34321556     0.04400
N830        N  0.93378291  0.20975422  0.35115381     0.66900
H831        H  0.87040242  0.24056309  0.29594247     0.15800
H832        H  0.82227154  0.08871475  0.37116139     0.15600
N833        N  0.76656113  0.11073998  0.30721825     0.74600
O834        O  0.96687703  0.20510041  0.32242707    -0.38800
O835        O  0.93575611  0.24430362  0.37841185    -0.38700
O836        O  0.78214992  0.07893506  0.28116227    -0.39500
O837        O  0.73323979  0.09804782  0.33397065    -0.39500
C838        C  0.65070564  0.38333472  0.32735108    -0.11800
C839        C  0.64317511  0.36833622  0.37272326     0.05200
C840        C  0.67006360  0.32967484  0.38876189    -0.07100
C841        C  0.69987165  0.30520593  0.35854722    -0.07800
C842        C  0.70637055  0.31928742  0.31242355    -0.02400
C843        C  0.68988245  0.36631083  0.30239581     0.04400
N844        N  0.72438034  0.40354999  0.29256900     0.66900
H845        H  0.63491702  0.41662646  0.31639075     0.15800
H846        H  0.71868013  0.27599861  0.37265162     0.15600
N847        N  0.66625767  0.31313696  0.43491938     0.74600
O848        O  0.71162451  0.44226057  0.27396388    -0.38800
O849        O  0.76285816  0.40369776  0.31417459    -0.38700
O850        O  0.64250977  0.27526977  0.44379108    -0.39500
O851        O  0.69649180  0.32756880  0.46320899    -0.39500
C852        C  0.78269546  0.31585882  0.13848737    -0.11800
C853        C  0.80605817  0.29175658  0.17359312     0.05200
C854        C  0.85512243  0.28368108  0.16547193    -0.07100
C855        C  0.88040782  0.31416777  0.13486760    -0.07800
C856        C  0.85686007  0.34700548  0.10718604    -0.02400
C857        C  0.80716116  0.34320959  0.10536158     0.04400
N858        N  0.78094158  0.36355432  0.06884887     0.66900
H859        H  0.74513451  0.31073431  0.13444471     0.15800
H860        H  0.91860290  0.31147669  0.13221167     0.16600
N861        N  0.87854107  0.24173927  0.18134005     0.74600
O862        O  0.76518884  0.33611950  0.03850413    -0.38800
O863        O  0.76340822  0.40453142  0.07311808    -0.38700
O864        O  0.89387642  0.21324842  0.15184674    -0.39500
O865        O  0.89753976  0.24143535  0.21986148    -0.39500
C866        C  0.88407695  0.38724987  0.58434318     0.42900
N867        N  0.93352743  0.44639133  0.57426143     0.01800
C868        C  0.95316190  0.09284693  0.88149291    -0.06100
H869        H  0.96815005  0.41189766  0.85289129     0.07300
C870        C  0.62163656  0.41781169  0.94981106    -0.06400
Co871      Co  0.91271197  0.99896397  0.98805846     0.74200
N872        N  0.95139827  0.45427852  0.91161772    -0.25600
Co873      Co  0.50806303  0.50546135  0.91726676     0.74100
C874        C  0.61058682  0.39785969  0.90478258     0.43000
N875        N  0.57682741  0.44550578  0.55839508     0.01400
N876        N  0.56048198  0.45296060  0.92208876     0.01500
N877        N  0.89058736  0.08856417  0.92970725    -0.46400
H878        H  0.84302891  0.40811726  0.51965366     0.07300
N879        N  0.91446929  0.45385788  0.93955210     0.01800
N880        N  0.56089465  0.05983498  0.92695364     0.01600
C881        C  0.60966622  0.11946242  0.91617603     0.43200
N882        N  0.53904644  0.44271643  0.58515792    -0.25000
C883        C  0.86845243  0.07517351  0.55614800    -0.06000
N884        N  0.92259416  0.40975005  0.60191007    -0.46200
N885        N  0.57154554  0.09611002  0.89902543    -0.46400
C886        C  0.87724161  0.08876065  0.60338106     0.42900
N887        N  0.92172453  0.05516841  0.93975737     0.01800
N888        N  0.53924906  0.04810753  0.58909407    -0.25100
N889        N  0.90415622  0.44955138  0.53972595    -0.25600
N890        N  0.57594398  0.05061450  0.56080401     0.01500
H891        H  0.52106627  0.08833910  0.64899680     0.07300
H892        H  0.65070155  0.09974793  0.98143326     0.07400
N893        N  0.95856963  0.05642856  0.91163479    -0.25600
N894        N  0.58907842  0.45161165  0.95741746    -0.25200
N895        N  0.93314249  0.04421414  0.58025142     0.01800
C896        C  0.89891562  0.39633997  0.89343382     0.43200
C897        C  0.54555564  0.40937959  0.61752646    -0.06500
N898        N  0.58997032  0.05732035  0.96166431    -0.25200
H899        H  0.65109055  0.41079836  0.97185822     0.07400
N900        N  0.88214790  0.42040247  0.92958355    -0.46400
H901        H  0.52225639  0.40243274  0.64644399     0.07300
C902        C  0.58923940  0.10775660  0.60829380     0.43000
C903        C  0.87169769  0.41392271  0.54313757    -0.06000
Co904      Co  0.98598921  0.99413044  0.58276869     0.73800
N905        N  0.61051073  0.41638519  0.57204637    -0.46200
C906        C  0.90793925  0.11472753  0.89372566     0.43300
N907        N  0.91790776  0.06825092  0.61589509    -0.46100
Co908      Co  0.58391147  0.50035182  0.50944907     0.73900
C909        C  0.62218628  0.09337045  0.95791185    -0.06500
C910        C  0.94467266  0.41938630  0.88114319    -0.06000
N911        N  0.90465707  0.04712525  0.54502829    -0.25600
N912        N  0.57253602  0.42230569  0.88994273    -0.46300
H913        H  0.97653483  0.10107868  0.85290900     0.07300
C914        C  0.54481748  0.08231477  0.62059596    -0.06500
Cl915      Cl  0.49557125  0.00280918  0.49870639    -0.49500
C916        C  0.59284017  0.39177948  0.60865530     0.43100
H917        H  0.83729330  0.08047361  0.53570553     0.07300
N918        N  0.60695638  0.08494457  0.57162299    -0.46200
C919        C  0.72038701  0.22870184  0.78143372    -0.02000
C920        C  0.72767840  0.28452044  0.77697244    -0.02000
C921        C  0.71950456  0.28139961  0.72424112    -0.02000
C922        C  0.71260480  0.22494665  0.72815898    -0.02000
C923        C  0.77536063  0.22167987  0.77438418    -0.02000
C924        C  0.76736955  0.21822654  0.72082210    -0.02000
C925        C  0.77469658  0.27376673  0.71595005    -0.02000
C926        C  0.78259213  0.27814916  0.76912800    -0.02000
C927        C  0.61404202  0.17754487  0.85205824    -0.11800
C928        C  0.63663634  0.15670873  0.88944887     0.05200
C929        C  0.68460504  0.16916605  0.89666116    -0.07100
C930        C  0.71020009  0.19408618  0.86229919    -0.07800
C931        C  0.68946893  0.20735428  0.82062730    -0.02400
C932        C  0.63948574  0.20400103  0.81876913     0.04400
N933        N  0.61322804  0.22912378  0.78530333     0.66900
H934        H  0.57609280  0.17277879  0.84816724     0.15800
H935        H  0.74668645  0.20299778  0.86889813     0.15600
N936        N  0.70872123  0.15568604  0.93728957     0.74600
O937        O  0.58429304  0.20581659  0.76121329    -0.38800
O938        O  0.60651055  0.27322534  0.79121599    -0.38700
O939        O  0.73542262  0.11991192  0.93680699    -0.39500
O940        O  0.71346428  0.18603961  0.96847455    -0.39500
C941        C  0.66602543  0.38690509  0.65361388    -0.11800
C942        C  0.62223201  0.36684899  0.64221993     0.05200
C943        C  0.60599783  0.32540640  0.66529792    -0.07100
C944        C  0.63626521  0.30185982  0.69537637    -0.07800
C945        C  0.68387120  0.31690915  0.70159122    -0.02400
C946        C  0.69635944  0.36386194  0.68426253     0.04400
N947        N  0.74026089  0.38782726  0.69484148     0.66900
H948        H  0.67652785  0.42118749  0.63845400     0.15800
H949        H  0.62332769  0.26883266  0.71002997     0.15600
N950        N  0.56013541  0.30500053  0.65618574     0.74600
O951        O  0.75460728  0.42443461  0.67249712    -0.38800
O952        O  0.76491807  0.37296690  0.72707738    -0.38700
O953        O  0.55121845  0.28844996  0.61735751    -0.39500
O954        O  0.52682407  0.30946963  0.68470384    -0.39500
C955        C  0.81414519  0.14698859  0.61358781    -0.11800
C956        C  0.84608170  0.11647306  0.63360445     0.05200
C957        C  0.84863167  0.11526983  0.68121435    -0.07100
C958        C  0.82102706  0.14630517  0.70692718    -0.07800
C959        C  0.79089478  0.18096065  0.68783353    -0.02400
C960        C  0.78767954  0.17961921  0.63869684     0.04400
N961        N  0.76245254  0.21199977  0.61044844     0.66900
H962        H  0.81181975  0.14834324  0.57675991     0.15800
H963        H  0.82627730  0.14325482  0.74250104     0.15600
N964        N  0.87972731  0.08359779  0.70447242     0.74600
O965        O  0.72875615  0.19348271  0.58858422    -0.38800
O966        O  0.78776292  0.24206325  0.58828084    -0.38700
O967        O  0.91864315  0.09994398  0.71904171    -0.39500
O968        O  0.86327359  0.04448487  0.72070053    -0.39500
C969        C  0.63023835  0.12247794  0.68090436    -0.11800
C970        C  0.61778518  0.14000445  0.63806718     0.05200
C971        C  0.63595229  0.18561579  0.62416475    -0.07100
C972        C  0.66458646  0.21226375  0.65463426    -0.07800
C973        C  0.67760492  0.19487007  0.69811462    -0.02400
C974        C  0.66180058  0.14764166  0.70912762     0.04400
N975        N  0.68452905  0.11994593  0.74272530     0.66900
H976        H  0.61917106  0.08630133  0.69081361     0.15800
H977        H  0.68011903  0.24572879  0.64230260     0.15600
N978        N  0.62876147  0.20443347  0.57877130     0.74600
O979        O  0.66172795  0.10990319  0.77884199    -0.38800
O980        O  0.71337490  0.08976195  0.72792989    -0.38700
O981        O  0.63064643  0.24917752  0.57147244    -0.39500
O982        O  0.63020450  0.17703258  0.54497261    -0.39500
C983        C  0.81541291  0.29969564  0.84637048    -0.11800
C984        C  0.81601087  0.31004109  0.79911414     0.05200
C985        C  0.84706590  0.34888641  0.78449634    -0.07100
C986        C  0.86982415  0.37770116  0.81670920    -0.07800
C987        C  0.86893455  0.36650291  0.86301442    -0.02400
C988        C  0.84222102  0.32599317  0.87781848     0.04400
N989        N  0.84553389  0.30783902  0.92337574     0.66900
H990        H  0.79677098  0.26816024  0.85899041     0.15800
H991        H  0.89190386  0.40756437  0.80450998     0.15600
N992        N  0.86489557  0.35557891  0.73917946     0.74600
O993        O  0.81249152  0.31584408  0.95130364    -0.38800
O994        O  0.87248463  0.27310752  0.93105791    -0.38700
O995        O  0.85062224  0.39088146  0.71618020    -0.39500
O996        O  0.90743761  0.34404262  0.73278438    -0.39500
C997        C  0.85743588  0.20770833  0.81004655    -0.11800
C998        C  0.80997339  0.19132934  0.80507169     0.05200
C999        C  0.79925226  0.14557324  0.82636135    -0.07100
C1000       C  0.83044612  0.12532206  0.85770421    -0.07800
C1001       C  0.87646653  0.14288076  0.86317522    -0.02400
C1002       C  0.89070276  0.18367433  0.83724479     0.04400
N1003       N  0.93840074  0.20173796  0.83806188     0.66900
H1004       H  0.86964779  0.23951510  0.79239553     0.15800
H1005       H  0.82006242  0.09157049  0.87411398     0.15600
N1006       N  0.76364542  0.11303574  0.81078091     0.74600
O1007       O  0.96671681  0.18986225  0.80682937    -0.38800
O1008       O  0.94761992  0.23892196  0.86057992    -0.38700
O1009       O  0.77825592  0.08097729  0.78450176    -0.39500
O1010       O  0.73116907  0.10057315  0.83854758    -0.39500
C1011       C  0.64131165  0.37712761  0.82714531    -0.11800
C1012       C  0.64110801  0.36789554  0.87430172     0.05200
C1013       C  0.67387820  0.33417369  0.89052988    -0.07100
C1014       C  0.70200027  0.30865678  0.85945479    -0.07800
C1015       C  0.70300105  0.31935299  0.81225666    -0.02400
C1016       C  0.68052044  0.36321340  0.80056717     0.04400
N1017       N  0.71038715  0.40378134  0.78869971     0.66900
H1018       H  0.62026919  0.40650302  0.81461471     0.15800
H1019       H  0.72378484  0.28148545  0.87342225     0.15600
N1020       N  0.67984786  0.32548526  0.93806019     0.74600
O1021       O  0.69297645  0.43954992  0.76851938    -0.38800
O1022       O  0.74885339  0.40972325  0.80977587    -0.38700
O1023       O  0.66425954  0.28660575  0.95549830    -0.39500
O1024       O  0.71186745  0.34871923  0.95835753    -0.39500
C1025       C  0.78162510  0.31828198  0.64015929    -0.11800
C1026       C  0.80463336  0.29395053  0.67540389     0.05200
C1027       C  0.85412296  0.28720490  0.66865557    -0.07100
C1028       C  0.87945508  0.31771449  0.63809713    -0.07800
C1029       C  0.85600581  0.34975427  0.60943736    -0.02400
C1030       C  0.80632086  0.34570787  0.60720266     0.04400
N1031       N  0.78045979  0.36497997  0.56990341     0.66900
H1032       H  0.74429726  0.31244332  0.63526336     0.15800
H1033       H  0.91773889  0.31560086  0.63621027     0.16600
N1034       N  0.87850545  0.24677578  0.68663642     0.74600
O1035       O  0.76950779  0.33753304  0.53772705    -0.38800
O1036       O  0.75781079  0.40311462  0.57499741    -0.38700
O1037       O  0.88971111  0.21475669  0.65881566    -0.39500
O1038       O  0.90462508  0.25225269  0.72068847    -0.39500
C1039       C  0.88568125  0.88142482  0.08071626     0.42900
N1040       N  0.93529808  0.94061566  0.07086731     0.01800
C1041       C  0.94911054  0.59717445  0.38381879    -0.06100
H1042       H  0.97303928  0.91152509  0.35134449     0.07300
C1043       C  0.61649967  0.91798768  0.44506668    -0.06400
Co1044     Co  0.91032166  0.50474360  0.49156427     0.74200
N1045       N  0.95476217  0.95298206  0.41021110    -0.25600
Co1046     Co  0.50534612  0.00963576  0.41591279     0.74100
C1047       C  0.60419375  0.89954157  0.40006768     0.43000
N1048       N  0.57401423  0.94756475  0.05886688     0.01400
N1049       N  0.55665411  0.95610323  0.41832388     0.01500
N1050       N  0.88747185  0.59363530  0.43314500    -0.46400
H1051       H  0.84585736  0.90150192  0.01512334     0.07300
N1052       N  0.91749684  0.95174490  0.43770769     0.01800
N1053       N  0.56051961  0.55721634  0.42595682     0.01600
C1054       C  0.60795469  0.61789862  0.41486843     0.43200
N1055       N  0.53649996  0.94600246  0.08597269    -0.25000
C1056       C  0.86885231  0.58173019  0.05582742    -0.06000
N1057       N  0.92370161  0.90439791  0.09880560    -0.46200
N1058       N  0.57043862  0.59350292  0.39778166    -0.46400
C1059       C  0.87887145  0.59679009  0.10244981     0.42900
N1060       N  0.91879038  0.56028173  0.44288857     0.01800
N1061       N  0.53664750  0.55005271  0.08979001    -0.25100
N1062       N  0.90665510  0.94321143  0.03570804    -0.25600
N1063       N  0.57388967  0.55291404  0.06210548     0.01500
H1064       H  0.51641478  0.59092865  0.14867199     0.07300
H1065       H  0.64939059  0.59940075  0.48024768     0.07400
N1066       N  0.95504013  0.56097202  0.41408340    -0.25600
N1067       N  0.58542938  0.95280377  0.45337323    -0.25200
N1068       N  0.93279585  0.54953224  0.08011834     0.01800
C1069       C  0.90308644  0.89490686  0.39057169     0.43200
C1070       C  0.54180625  0.91167487  0.11764207    -0.06500
N1071       N  0.58950357  0.55563587  0.46082585    -0.25200
H1072       H  0.64600622  0.90915646  0.46654057     0.07400
N1073       N  0.88571924  0.91811892  0.42695552    -0.46400
H1074       H  0.51842152  0.90503596  0.14655406     0.07300
C1075       C  0.58486845  0.61135637  0.10879374     0.43000
C1076       C  0.87431413  0.90742066  0.03882402    -0.06000
Co1077     Co  0.98500858  0.49905786  0.08325673     0.73800
N1078       N  0.60635924  0.91652886  0.07156780    -0.46200
C1079       C  0.90423396  0.61941397  0.39675489     0.43300
N1080       N  0.91889036  0.57525169  0.11516174    -0.46100
Co1081     Co  0.58276166  0.00232646  0.01009841     0.73900
C1082       C  0.62089714  0.59240153  0.45686130    -0.06500
C1083       C  0.94892151  0.91842986  0.37925091    -0.06000
N1084       N  0.90394486  0.55204107  0.04516569    -0.25600
N1085       N  0.56737259  0.92584495  0.38539702    -0.46300
H1086       H  0.97167441  0.60490630  0.35452486     0.07300
C1087       C  0.54075840  0.58507624  0.12069757    -0.06500
Cl1088     Cl  0.49659675  0.50074401  0.00011322    -0.49500
C1089       C  0.58806024  0.89198248  0.10794545     0.43100
H1090       H  0.83766854  0.58760642  0.03556459     0.07300
N1091       N  0.60385433  0.58816961  0.07292280    -0.46200
C1092       C  0.71793813  0.73150882  0.28141070    -0.02000
C1093       C  0.72519103  0.78757840  0.27687577    -0.02000
C1094       C  0.71603988  0.78405797  0.22420927    -0.02000
C1095       C  0.70954613  0.72762054  0.22821866    -0.02000
C1096       C  0.77293277  0.72465261  0.27393766    -0.02000
C1097       C  0.76419789  0.72090129  0.22057285    -0.02000
C1098       C  0.77131459  0.77649321  0.21530689    -0.02000
C1099       C  0.78008229  0.78137123  0.26796551    -0.02000
C1100       C  0.61197361  0.67556599  0.35014036    -0.11800
C1101       C  0.63455912  0.65519414  0.38776011     0.05200
C1102       C  0.68223663  0.66845898  0.39527169    -0.07100
C1103       C  0.70788874  0.69342886  0.36099676    -0.07800
C1104       C  0.68710878  0.70765121  0.31960349    -0.02400
C1105       C  0.63708091  0.70348333  0.31758769     0.04400
N1106       N  0.61030936  0.73040432  0.28577481     0.66900
H1107       H  0.57410762  0.67021982  0.34611281     0.15800
H1108       H  0.74395615  0.70376669  0.36826488     0.15600
N1109       N  0.70549250  0.65740810  0.43697261     0.74600
O1110       O  0.57937061  0.70885379  0.26248899    -0.38800
O1111       O  0.60572162  0.77464849  0.29275199    -0.38700
O1112       O  0.73721381  0.62613900  0.43735856    -0.39500
O1113       O  0.70363001  0.68700608  0.46904162    -0.39500
C1114       C  0.66098656  0.88795578  0.15282305    -0.11800
C1115       C  0.61735495  0.86747428  0.14176098     0.05200
C1116       C  0.60127517  0.82643329  0.16557725    -0.07100
C1117       C  0.63170307  0.80367627  0.19614944    -0.07800
C1118       C  0.67941517  0.81891003  0.20174291    -0.02400
C1119       C  0.69132107  0.86555709  0.18372734     0.04400
N1120       N  0.73454184  0.89003357  0.19463420     0.66900
H1121       H  0.67135291  0.92210637  0.13729316     0.15800
H1122       H  0.61891689  0.77088844  0.21130765     0.15600
N1123       N  0.55566356  0.80542991  0.15648570     0.74600
O1124       O  0.74907060  0.92652074  0.17221143    -0.38800
O1125       O  0.75798269  0.87597434  0.22791056    -0.38700
O1126       O  0.54761998  0.78696702  0.11827810    -0.39500
O1127       O  0.52172034  0.81125173  0.18402135    -0.39500
C1128       C  0.81749134  0.65683318  0.11273392    -0.11800
C1129       C  0.84825243  0.62500099  0.13268423     0.05200
C1130       C  0.84825459  0.62088188  0.18033609    -0.07100
C1131       C  0.81921309  0.65030801  0.20636676    -0.07800
C1132       C  0.78861640  0.68455448  0.18746556    -0.02400
C1133       C  0.78695067  0.68510839  0.13835772     0.04400
N1134       N  0.75255000  0.70853011  0.11144714     0.66900
H1135       H  0.81612508  0.65946582  0.07589827     0.15800
H1136       H  0.82317333  0.64612664  0.24177039     0.15600
N1137       N  0.87843397  0.58820075  0.20346910     0.74600
O1138       O  0.72290451  0.68070361  0.09303866    -0.38800
O1139       O  0.76685665  0.74368043  0.08729455    -0.38700
O1140       O  0.91407534  0.60455011  0.22420074    -0.39500
O1141       O  0.86273845  0.54665462  0.21352732    -0.39500
C1142       C  0.62526046  0.62639415  0.18168790    -0.11800
C1143       C  0.61262682  0.64403486  0.13887501     0.05200
C1144       C  0.63096712  0.68962074  0.12488357    -0.07100
C1145       C  0.66038183  0.71576019  0.15505124    -0.07800
C1146       C  0.67381801  0.69809429  0.19835597    -0.02400
C1147       C  0.65745500  0.65117681  0.20959944     0.04400
N1148       N  0.68136885  0.62300619  0.24200563     0.66900
H1149       H  0.61428144  0.59016428  0.19149274     0.15800
H1150       H  0.67647932  0.74884883  0.14242757     0.15600
N1151       N  0.62404150  0.70854197  0.07942932     0.74600
O1152       O  0.65833296  0.60781848  0.27646747    -0.38800
O1153       O  0.71370265  0.59733911  0.22615407    -0.38700
O1154       O  0.62818129  0.75312489  0.07177248    -0.39500
O1155       O  0.62291208  0.68092436  0.04577450    -0.39500
C1156       C  0.81111151  0.80653419  0.34361614    -0.11800
C1157       C  0.81501102  0.81384549  0.29601026     0.05200
C1158       C  0.85129379  0.84842355  0.28074896    -0.07100
C1159       C  0.87876302  0.87278418  0.31305928    -0.07800
C1160       C  0.87354021  0.86509283  0.35968824    -0.02400
C1161       C  0.83935566  0.83114103  0.37498830     0.04400
N1162       N  0.83299827  0.82027230  0.42226161     0.66900
H1163       H  0.78687001  0.77939371  0.35699188     0.15800
H1164       H  0.90466892  0.89934467  0.30096625     0.15600
N1165       N  0.86481953  0.85973999  0.23440595     0.74600
O1166       O  0.79825739  0.83804868  0.44287894    -0.38800
O1167       O  0.85177202  0.78321550  0.43866666    -0.38700
O1168       O  0.84072955  0.88899649  0.21192885    -0.39500
O1169       O  0.90854030  0.85923834  0.22460210    -0.39500
C1170       C  0.85343480  0.71196633  0.31356077    -0.11800
C1171       C  0.80711733  0.69398811  0.30534730     0.05200
C1172       C  0.79714771  0.64713311  0.32524495    -0.07100
C1173       C  0.82785557  0.62699030  0.35731805    -0.07800
C1174       C  0.87239538  0.64679209  0.36602873    -0.02400
C1175       C  0.88580436  0.68918828  0.34249841     0.04400
N1176       N  0.93162768  0.71074501  0.34827083     0.66900
H1177       H  0.86592623  0.74409530  0.29718711     0.15800
H1178       H  0.81837865  0.59228481  0.37232372     0.15600
N1179       N  0.76222974  0.61425692  0.30876989     0.74600
O1180       O  0.96207194  0.70750476  0.31673613    -0.38800
O1181       O  0.93663734  0.74332571  0.37731680    -0.38700
O1182       O  0.77770292  0.58235788  0.28275508    -0.39500
O1183       O  0.72922769  0.60138877  0.33580959    -0.39500
C1184       C  0.64627901  0.88735061  0.32593015    -0.11800
C1185       C  0.63488445  0.87028934  0.36994434     0.05200
C1186       C  0.65963092  0.83044236  0.38647752    -0.07100
C1187       C  0.69166647  0.80708613  0.35778546    -0.07800
C1188       C  0.70121910  0.82253751  0.31258516    -0.02400
C1189       C  0.68724691  0.87074269  0.30357214     0.04400
N1190       N  0.72350969  0.90758024  0.29935217     0.66900
H1191       H  0.63235864  0.92172784  0.31555321     0.15800
H1192       H  0.71037930  0.77824329  0.37256667     0.15600
N1193       N  0.65157101  0.81187362  0.43155462     0.74600
O1194       O  0.71343271  0.94864535  0.28397368    -0.38800
O1195       O  0.76202744  0.90286254  0.32027606    -0.38700
O1196       O  0.62531597  0.77504820  0.43712655    -0.39500
O1197       O  0.67991667  0.82347708  0.46263991    -0.39500
C1198       C  0.78036560  0.82008817  0.13941771    -0.11800
C1199       C  0.80229239  0.79556166  0.17516324     0.05200
C1200       C  0.85185697  0.78754244  0.16973666    -0.07100
C1201       C  0.87808063  0.81449552  0.13701264    -0.07800
C1202       C  0.85599051  0.84583702  0.10671074    -0.02400
C1203       C  0.80615232  0.84471051  0.10525611     0.04400
N1204       N  0.78082390  0.86594254  0.06854344     0.66900
H1205       H  0.74266764  0.81710442  0.13547858     0.15800
H1206       H  0.91633366  0.81162620  0.13607106     0.16600
N1207       N  0.87706043  0.75289159  0.19592749     0.74600
O1208       O  0.76794178  0.83976562  0.03604729    -0.38800
O1209       O  0.76086666  0.90552440  0.07426899    -0.38700
O1210       O  0.89205232  0.71695679  0.17505893    -0.39500
O1211       O  0.90121086  0.76713188  0.22904265    -0.39500
C1212       C  0.88336313  0.88177235  0.58049071     0.42900
N1213       N  0.93345457  0.94070563  0.57193748     0.01800
C1214       C  0.94930074  0.59653244  0.88389921    -0.06100
H1215       H  0.97544780  0.90959757  0.84938372     0.07300
C1216       C  0.61917746  0.91774115  0.94856485    -0.06400
Co1217     Co  0.90928616  0.50399075  0.99137409     0.74200
N1218       N  0.95734508  0.95074076  0.90856737    -0.25600
Co1219     Co  0.50727811  0.00838379  0.91774648     0.74100
C1220       C  0.60737483  0.89882309  0.90341659     0.43000
N1221       N  0.57399274  0.94552347  0.55504862     0.01400
N1222       N  0.55867003  0.95472724  0.92161718     0.01500
N1223       N  0.88735270  0.59343382  0.93286613    -0.46400
H1224       H  0.84313391  0.90407094  0.51584032     0.07300
N1225       N  0.92009098  0.94939711  0.93607112     0.01800
N1226       N  0.56053507  0.55811045  0.92605926     0.01600
C1227       C  0.60857312  0.61823224  0.91458777     0.43200
N1228       N  0.53688829  0.94355612  0.58261132    -0.25000
C1229       C  0.87324462  0.58490115  0.55565772    -0.06000
N1230       N  0.92173559  0.90381812  0.59896608    -0.46200
N1231       N  0.57098442  0.59394863  0.89750464    -0.46400
C1232       C  0.88465673  0.60097572  0.60173997     0.42900
N1233       N  0.91823797  0.55967731  0.94269304     0.01800
N1234       N  0.53765882  0.54692628  0.58969436    -0.25100
N1235       N  0.90455466  0.94446664  0.53707695    -0.25600
N1236       N  0.57485007  0.55025671  0.56201767     0.01500
H1237       H  0.51740580  0.58661872  0.64933608     0.07300
H1238       H  0.64904228  0.60051843  0.98069986     0.07400
N1239       N  0.95468755  0.56016117  0.91408600    -0.25600
N1240       N  0.58741877  0.95219571  0.95677450    -0.25200
N1241       N  0.93597407  0.55050078  0.57996738     0.01800
C1242       C  0.90563928  0.89269287  0.88876961     0.43200
C1243       C  0.54238181  0.90832147  0.61333184    -0.06500
N1244       N  0.58919245  0.55678313  0.96114246    -0.25200
H1245       H  0.64887935  0.90951953  0.97003594     0.07400
N1246       N  0.88835592  0.91580603  0.92522461    -0.46400
H1247       H  0.51928547  0.90104487  0.64233062     0.07300
C1248       C  0.58579916  0.60775983  0.60972239     0.43000
C1249       C  0.87176458  0.90906918  0.53953362    -0.06000
Co1250     Co  0.98707691  0.49883894  0.58294530     0.73800
N1251       N  0.60630182  0.91390643  0.56656037    -0.46200
C1252       C  0.90457337  0.61919257  0.89659304     0.43300
N1253       N  0.92376843  0.57779783  0.61449805    -0.46100
Co1254     Co  0.58201936  0.00145889  0.50742325     0.73900
C1255       C  0.62086493  0.59327561  0.95703041    -0.06500
C1256       C  0.95149234  0.91625355  0.87748513    -0.06000
N1257       N  0.90673182  0.55330510  0.54531784    -0.25600
N1258       N  0.56998815  0.92443020  0.88890927    -0.46300
H1259       H  0.97224703  0.60420994  0.85487698     0.07300
C1260       C  0.54174868  0.58130340  0.62124655    -0.06500
Cl1261     Cl  0.49744069  0.49865251  0.49930819    -0.49500
C1262       C  0.58839760  0.88848781  0.60263786     0.43100
H1263       H  0.84229292  0.59185838  0.53539700     0.07300
N1264       N  0.60481308  0.58529102  0.57342560    -0.46200
C1265       C  0.71843943  0.73148614  0.78094992    -0.02000
C1266       C  0.72537650  0.78752927  0.77537692    -0.02000
C1267       C  0.71599462  0.78272186  0.72270728    -0.02000
C1268       C  0.70990347  0.72628282  0.72783198    -0.02000
C1269       C  0.77350152  0.72469741  0.77348603    -0.02000
C1270       C  0.76466708  0.71963762  0.72033294    -0.02000
C1271       C  0.77139715  0.77517393  0.71395289    -0.02000
C1272       C  0.78036866  0.78129394  0.76646028    -0.02000
C1273       C  0.61259924  0.67673456  0.85051557    -0.11800
C1274       C  0.63541144  0.65541390  0.88755579     0.05200
C1275       C  0.68332141  0.66803529  0.89477283    -0.07100
C1276       C  0.70865823  0.69383269  0.86085215    -0.07800
C1277       C  0.68771968  0.70845034  0.81967091    -0.02400
C1278       C  0.63769643  0.70464454  0.81791605     0.04400
N1279       N  0.61105155  0.73127016  0.78576636     0.66900
H1280       H  0.57465652  0.67178013  0.84677666     0.15800
H1281       H  0.74481115  0.70380723  0.86802019     0.15600
N1282       N  0.70755346  0.65437108  0.93525831     0.74600
O1283       O  0.57966965  0.70967244  0.76305863    -0.38800
O1284       O  0.60745530  0.77582627  0.79155750    -0.38700
O1285       O  0.73212218  0.61703999  0.93525218    -0.39500
O1286       O  0.71471076  0.68535088  0.96548605    -0.39500
C1287       C  0.66221929  0.88345895  0.64612316    -0.11800
C1288       C  0.61809399  0.86352737  0.63603385     0.05200
C1289       C  0.60132315  0.82385982  0.66165239    -0.07100
C1290       C  0.63133458  0.80209630  0.69349453    -0.07800
C1291       C  0.67932801  0.81686296  0.69871323    -0.02400
C1292       C  0.69187424  0.86225498  0.67839604     0.04400
N1293       N  0.73480599  0.88704921  0.68930800     0.66900
H1294       H  0.67319828  0.91677553  0.62935911     0.15800
H1295       H  0.61805500  0.77017712  0.70998149     0.15600
N1296       N  0.55504851  0.80365313  0.65380467     0.74600
O1297       O  0.74996252  0.92267560  0.66601437    -0.38800
O1298       O  0.75653415  0.87497749  0.72431693    -0.38700
O1299       O  0.54459958  0.78781234  0.61504595    -0.39500
O1300       O  0.52271194  0.80810563  0.68334201    -0.39500
C1301       C  0.82070083  0.65824856  0.61283402    -0.11800
C1302       C  0.85414571  0.62898109  0.63241003     0.05200
C1303       C  0.85547753  0.62562946  0.68015658    -0.07100
C1304       C  0.82402519  0.65223725  0.70645352    -0.07800
C1305       C  0.79044578  0.68362729  0.68778873    -0.02400
C1306       C  0.78798081  0.68352351  0.63883255     0.04400
N1307       N  0.74907239  0.70003737  0.61313522     0.66900
H1308       H  0.81804612  0.66010401  0.57605199     0.15800
H1309       H  0.82893285  0.64863580  0.74205022     0.15600
N1310       N  0.89093282  0.59880579  0.70306602     0.74600
O1311       O  0.72214243  0.66729488  0.59825785    -0.38800
O1312       O  0.75614060  0.73595024  0.58725268    -0.38700
O1313       O  0.92629855  0.62098153  0.71909542    -0.39500
O1314       O  0.88056861  0.55729279  0.71818549    -0.39500
C1315       C  0.62610884  0.62373347  0.68258236    -0.11800
C1316       C  0.61303739  0.64093896  0.63973761     0.05200
C1317       C  0.63057013  0.68672645  0.62552768    -0.07100
C1318       C  0.65996066  0.71330075  0.65529393    -0.07800
C1319       C  0.67392114  0.69619243  0.69865041    -0.02400
C1320       C  0.65809956  0.64916135  0.71025479     0.04400
N1321       N  0.68212774  0.62158930  0.74302062     0.66900
H1322       H  0.61562224  0.58743292  0.69263009     0.15800
H1323       H  0.67601271  0.74608208  0.64200511     0.15600
N1324       N  0.62309765  0.70537646  0.58009944     0.74600
O1325       O  0.65958231  0.60845400  0.77846485    -0.38800
O1326       O  0.71317791  0.59425397  0.72734441    -0.38700
O1327       O  0.62591140  0.75002810  0.57244620    -0.39500
O1328       O  0.62254662  0.67773624  0.54646144    -0.39500
C1329       C  0.81286611  0.80569976  0.84161223    -0.11800
C1330       C  0.81565201  0.81394559  0.79407918     0.05200
C1331       C  0.85154862  0.84901431  0.77871764    -0.07100
C1332       C  0.87957374  0.87279364  0.81109410    -0.07800
C1333       C  0.87549311  0.86382323  0.85766123    -0.02400
C1334       C  0.84177528  0.82943312  0.87293073     0.04400
N1335       N  0.83725397  0.81649503  0.92000615     0.66900
H1336       H  0.78967858  0.77770685  0.85492344     0.15800
H1337       H  0.90519695  0.89972552  0.79919113     0.15600
N1338       N  0.86460487  0.86089954  0.73227206     0.74600
O1339       O  0.80651053  0.83701038  0.94388982    -0.38800
O1340       O  0.85264693  0.77654624  0.93337777    -0.38700
O1341       O  0.83875463  0.88780121  0.70909153    -0.39500
O1342       O  0.90830680  0.86271937  0.72226967    -0.39500
C1343       C  0.85449383  0.71181804  0.81262258    -0.11800
C1344       C  0.80780798  0.69440837  0.80513905     0.05200
C1345       C  0.79771749  0.64789301  0.82539574    -0.07100
C1346       C  0.82799961  0.62808876  0.85798845    -0.07800
C1347       C  0.87310745  0.64695409  0.86571705    -0.02400
C1348       C  0.88710429  0.68855253  0.84106188     0.04400
N1349       N  0.93397557  0.70833297  0.84449071     0.66900
H1350       H  0.86709159  0.74359556  0.79574013     0.15800
H1351       H  0.81800254  0.59381174  0.87359020     0.15600
N1352       N  0.76358326  0.61470419  0.80835739     0.74600
O1353       O  0.96454237  0.69758288  0.81486170    -0.38800
O1354       O  0.94040506  0.74578936  0.86743331    -0.38700
O1355       O  0.77988856  0.58391090  0.78161858    -0.39500
O1356       O  0.73102666  0.60043676  0.83531792    -0.39500
C1357       C  0.64543736  0.88572715  0.82721759    -0.11800
C1358       C  0.63829090  0.87016968  0.87249693     0.05200
C1359       C  0.66580979  0.83177730  0.88806481    -0.07100
C1360       C  0.69601520  0.80825304  0.85756556    -0.07800
C1361       C  0.70190022  0.82260947  0.81147781    -0.02400
C1362       C  0.68493490  0.86970943  0.80207042     0.04400
N1363       N  0.71895274  0.90782405  0.79333053     0.66900
H1364       H  0.62920462  0.91894293  0.81669381     0.15800
H1365       H  0.71556339  0.77948499  0.87141503     0.15600
N1366       N  0.66208050  0.81431192  0.93393107     0.74600
O1367       O  0.70582015  0.94707851  0.77606199    -0.38800
O1368       O  0.75891951  0.90656334  0.81225294    -0.38700
O1369       O  0.63726082  0.77700441  0.94223573    -0.39500
O1370       O  0.69337329  0.82676373  0.96199960    -0.39500
C1371       C  0.77969028  0.81491986  0.63622191    -0.11800
C1372       C  0.80212967  0.79327143  0.67329197     0.05200
C1373       C  0.85206637  0.78719742  0.66864887    -0.07100
C1374       C  0.87755025  0.81447460  0.63581664    -0.07800
C1375       C  0.85462462  0.84441426  0.60498593    -0.02400
C1376       C  0.80492885  0.84036595  0.60223113     0.04400
N1377       N  0.77936103  0.85962145  0.56472164     0.66900
H1378       H  0.74211154  0.81042268  0.63212165     0.15800
H1379       H  0.91593728  0.81335980  0.63555584     0.16600
N1380       N  0.87854960  0.75422170  0.69549301     0.74600
O1381       O  0.76977837  0.83242112  0.53198862    -0.38800
O1382       O  0.75505807  0.89662064  0.57026317    -0.38700
O1383       O  0.89645059  0.71963406  0.67473376    -0.39500
O1384       O  0.90137847  0.77013464  0.72876806    -0.39500
loop_ 
_geom_bond_atom_site_label_1 
_geom_bond_atom_site_label_2 
_geom_bond_distance 
_geom_bond_site_symmetry_2 
_ccdc_geom_bond_type 
C1           N19   1.356       .  A
C1           C38   1.460       .  S
C1          C164   1.481       .  S
N2           N19   1.325       .  A
N2           N24   1.321       .  A
N2         Co385   2.109       .  S
C3           N28   1.344       .  A
C3           C41   1.465       .  S
C3           H48   1.081       .  S
H4           C45   1.082       .  S
C5           N29   1.345       .  A
C5            C9   1.470       .  S
C5           H34   1.079       .  S
Co6          N22   2.098       .  S
Co6         N543   2.076   1_545  S
Co6         N360   2.090   1_545  S
Co6         N219   2.090       .  S
Co6        Cl915   2.455       .  S
N7           C45   1.341       .  A
N7           N14   1.319       .  A
N7         Co700   2.095       .  S
Co8          N11   2.111       .  S
Co8         N699   2.104   1_455  S
Co8        N1066   2.111   1_455  S
Co8         N361   2.093       .  S
Co8        Cl569   2.453   1_455  S
C9           N47   1.356       .  A
C9          C147   1.500       .  S
N10          N17   1.318       .  A
N10          N40   1.325       .  A
N10         Co43   2.092       .  S
N11          N29   1.322       .  A
N11          N47   1.329       .  A
N12          C41   1.356       .  A
N12          N22   1.325       .  A
H13          C38   1.080       .  S
N14          N35   1.326       .  A
N14        Co352   2.081       .  S
N15          N33   1.318       .  A
N15          N20   1.321       .  A
N15        Co354   2.091       .  S
C16          N20   1.353       .  A
C16          C44   1.466       .  S
C16          C63   1.486       .  S
N17          C32   1.337       .  A
N17       Co1077   2.058   1_455  S
C18          N46   1.341       .  A
C18          C21   1.467       .  S
C18          H52   1.081       .  S
C21          N42   1.345       .  A
C21          C91   1.481       .  S
N22          N28   1.320       .  A
N23          C49   1.346       .  A
N23          N25   1.322       .  A
N23        Co731   2.113   1_445  S
N24          C38   1.340       .  A
N24        Co525   2.079   1_554  S
N25          N53   1.332       .  A
N25        Co389   2.117       .  S
H26          C49   1.081       .  S
H27          C44   1.080       .  S
N28       Co1046   2.094       .  S
N29        Co216   2.106       .  S
N30          N42   1.324       .  A
N30          N46   1.319       .  A
N30         Co39   2.063   1_545  S
C31          N35   1.348       .  A
C31          C45   1.469       .  S
C31         C122   1.483       .  S
C32          C51   1.453       .  S
C32          H36   1.082       .  S
N33          C44   1.345       .  A
N33        Co562   2.081       .  S
C37          N53   1.357       .  A
C37          C49   1.468       .  S
C37         C105   1.496       .  S
Co39        N348   2.100       .  S
Co39       N1055   2.059       .  S
Co39        N715   2.106   1_565  S
Co39       Cl742   2.448   1_565  S
N40          C51   1.354       .  A
C41         C136   1.486       .  S
Co43        N371   2.114       .  S
Co43        N202   2.122   1_554  S
Co43        N552   2.082   1_554  S
Co43       Cl396   2.462   1_455  S
N46        Co179   2.096   1_554  S
Cl50       Co871   2.457       .  S
Cl50       Co527   2.453   1_665  S
Cl50       Co731   2.445   1_556  S
Cl50       Co389   2.464   1_666  S
C51          C77   1.474       .  S
C54          C55   1.572       .  S
C54          C57   1.590       .  S
C54          C58   1.578       .  S
C54          C66   1.547       .  S
C55          C56   1.576       .  S
C55          C61   1.582       .  S
C55         C150   1.595       .  S
C56          C57   1.582       .  S
C56          C60   1.597       .  S
C56          C80   1.574       .  S
C57          C59   1.574       .  S
C57         C108   1.573       .  S
C58          C59   1.586       .  S
C58          C61   1.593       .  S
C58         C133   1.582       .  S
C59          C60   1.564       .  S
C59          C94   1.574       .  S
C60          C61   1.573       .  S
C60         C161   1.542       .  S
C61         C119   1.570       .  S
C62          H69   1.084       .  S
C62          C63   1.400       .  A
C62          C67   1.400       .  A
C63          C64   1.410       .  A
C64          C65   1.404       .  A
C64          N71   1.430       .  S
C65          H70   1.076       .  S
C65          C66   1.412       .  A
C66          C67   1.412       .  A
C67          N68   1.421       .  S
N68          O72   1.263       .  A
N68          O73   1.262       .  A
N71          O75   1.262       .  A
N71          O74   1.262       .  A
C76          H83   1.083       .  S
C76          C77   1.392       .  A
C76          C81   1.405       .  A
C77          C78   1.402       .  A
C78          C79   1.405       .  A
C78          N85   1.434       .  S
C79          H84   1.066       .  S
C79          C80   1.413       .  A
C80          C81   1.428       .  A
C81          N82   1.428       .  S
N82          O86   1.263       .  A
N82          O87   1.250       .  A
N85          O89   1.262       .  A
N85          O88   1.262       .  A
C90          H97   1.084       .  S
C90          C91   1.387       .  A
C90          C95   1.402       .  A
C91          C92   1.405       .  A
C92          C93   1.401       .  A
C92          N99   1.429       .  S
C93          H98   1.053       .  S
C93          C94   1.412       .  A
C94          C95   1.436       .  A
C95          N96   1.420       .  S
N96         O100   1.261       .  A
N96         O101   1.260       .  A
N99         O103   1.262       .  A
N99         O102   1.262       .  A
C104        H111   1.084       .  S
C104        C105   1.395       .  A
C104        C109   1.410       .  A
C105        C106   1.408       .  A
C106        C107   1.416       .  A
C106        N113   1.431       .  S
C107        H112   1.079       .  S
C107        C108   1.420       .  A
C108        C109   1.415       .  A
C109        N110   1.412       .  S
N110        O114   1.260       .  A
N110        O115   1.260       .  A
N113        O117   1.262       .  A
N113        O116   1.260       .  A
C118        H125   1.074       .  S
C118        C119   1.411       .  A
C118        C123   1.398       .  A
C119        C120   1.456       .  A
C120        C121   1.405       .  A
C120        N127   1.441       .  S
C121        H126   1.084       .  S
C121        C122   1.389       .  A
C122        C123   1.401       .  A
C123        N124   1.427       .  S
N124        O128   1.261       .  A
N124        O129   1.262       .  A
N127        O131   1.265       .  A
N127        O130   1.256       .  A
C132        H139   1.063       .  S
C132        C133   1.411       .  A
C132        C137   1.405       .  A
C133        C134   1.439       .  A
C134        C135   1.402       .  A
C134        N141   1.426       .  S
C135        H140   1.085       .  S
C135        C136   1.392       .  A
C136        C137   1.405       .  A
C137        N138   1.428       .  S
N138        O142   1.262       .  A
N138        O143   1.262       .  A
N141        O145   1.261       .  A
N141        O144   1.262       .  A
C146        H153   1.084       .  S
C146        C147   1.406       .  A
C146        C151   1.412       .  A
C147        C148   1.411       .  A
C148        C149   1.407       .  A
C148        N155   1.429       .  S
C149        H154   1.061       .  S
C149        C150   1.413       .  A
C150        C151   1.427       .  A
C151        N152   1.439       .  S
N152        O156   1.263       .  A
N152        O157   1.264       .  A
N155        O159   1.261       .  A
N155        O158   1.262       .  A
C160        H167   1.074       .  S
C160        C161   1.401       .  A
C160        C165   1.396       .  A
C161        C162   1.429       .  A
C162        C163   1.405       .  A
C162        N169   1.431       .  S
C163        H168   1.084       .  S
C163        C164   1.398       .  A
C164        C165   1.407       .  A
C165        N166   1.428       .  S
N166        O170   1.261       .  A
N166        O171   1.261       .  A
N169        O173   1.258       .  A
N169        O172   1.259       .  A
C174        N192   1.354       .  A
C174        C211   1.460       .  S
C174        C337   1.479       .  S
N175        N192   1.324       .  A
N175        N197   1.319       .  A
N175       Co558   2.098       .  S
C176        N201   1.347       .  A
C176        C214   1.466       .  S
C176        H221   1.082       .  S
H177        C218   1.082       .  S
C178        N202   1.349       .  A
C178        C182   1.474       .  S
C178        H207   1.080       .  S
Co179       N370   2.082   1_546  S
Co179       N533   2.092   1_545  S
Co179       N195   2.101       .  S
Co179      Cl742   2.456   1_556  S
N180        C218   1.342       .  A
N180        N187   1.318       .  A
N180       Co873   2.096       .  S
Co181       N872   2.108   1_455  S
Co181       N184   2.114       .  S
Co181      N1239   2.112   1_455  S
Co181       N534   2.095       .  S
Co181      Cl396   2.455   1_456  S
C182        N220   1.356       .  A
C182        C320   1.506       .  S
N183        N190   1.318       .  A
N183        N213   1.325       .  A
N183       Co216   2.094       .  S
N184        N202   1.323       .  A
N184        N220   1.330       .  A
N185        C214   1.356       .  A
N185        N195   1.325       .  A
H186        C211   1.080       .  S
N187        N208   1.327       .  A
N187       Co525   2.081       .  S
N188        N206   1.318       .  A
N188        N193   1.321       .  A
N188       Co527   2.092       .  S
C189        N193   1.353       .  A
C189        C217   1.462       .  S
C189        C236   1.481       .  S
N190        C205   1.337       .  A
N190      Co1250   2.061   1_455  S
C191        N219   1.339       .  A
C191        C194   1.465       .  S
C191        H225   1.081       .  S
C194        N215   1.346       .  A
C194        C264   1.478       .  S
N195        N201   1.320       .  A
N196        C222   1.347       .  A
N196        N198   1.323       .  A
N196       Co904   2.116   1_445  S
N197        C211   1.339       .  A
N197       Co352   2.077       .  S
N198        N226   1.331       .  A
N198       Co562   2.112       .  S
H199        C222   1.082       .  S
H200        C217   1.080       .  S
N201      Co1219   2.099       .  S
N203        N215   1.324       .  A
N203        N219   1.320       .  A
N203       Co212   2.065   1_545  S
C204        N208   1.349       .  A
C204        C218   1.469       .  S
C204        C295   1.483       .  S
C205        C224   1.454       .  S
C205        H209   1.082       .  S
N206        C217   1.342       .  A
N206       Co389   2.073   1_556  S
C210        N226   1.356       .  A
C210        C222   1.469       .  S
C210        C278   1.495       .  S
Co212       N521   2.092       .  S
Co212      N1228   2.061       .  S
Co212       N888   2.106   1_565  S
Co212      Cl915   2.447   1_565  S
N213        C224   1.355       .  A
C214        C309   1.487       .  S
Co216       N544   2.103       .  S
Co216       N379   2.082       .  S
Co216      Cl569   2.460   1_455  S
Cl223      Co698   2.460       .  S
Cl223      Co354   2.451   1_655  S
Cl223      Co904   2.448   1_545  S
Cl223      Co562   2.462   1_655  S
C224        C250   1.476       .  S
C227        C228   1.572       .  S
C227        C230   1.590       .  S
C227        C231   1.580       .  S
C227        C239   1.541       .  S
C228        C229   1.577       .  S
C228        C234   1.582       .  S
C228        C323   1.600       .  S
C229        C230   1.582       .  S
C229        C233   1.598       .  S
C229        C253   1.577       .  S
C230        C232   1.574       .  S
C230        C281   1.574       .  S
C231        C232   1.588       .  S
C231        C234   1.594       .  S
C231        C306   1.591       .  S
C232        C233   1.564       .  S
C232        C267   1.576       .  S
C233        C234   1.573       .  S
C233        C334   1.539       .  S
C234        C292   1.567       .  S
C235        H242   1.084       .  S
C235        C236   1.398       .  A
C235        C240   1.398       .  A
C236        C237   1.410       .  A
C237        C238   1.401       .  A
C237        N244   1.430       .  S
C238        H243   1.076       .  S
C238        C239   1.410       .  A
C239        C240   1.413       .  A
C240        N241   1.421       .  S
N241        O245   1.263       .  A
N241        O246   1.262       .  A
N244        O248   1.262       .  A
N244        O247   1.262       .  A
C249        H256   1.083       .  S
C249        C250   1.392       .  A
C249        C254   1.404       .  A
C250        C251   1.403       .  A
C251        C252   1.407       .  A
C251        N258   1.435       .  S
C252        H257   1.065       .  S
C252        C253   1.415       .  A
C253        C254   1.426       .  A
C254        N255   1.426       .  S
N255        O259   1.263       .  A
N255        O260   1.250       .  A
N258        O262   1.262       .  A
N258        O261   1.262       .  A
C263        H270   1.085       .  S
C263        C264   1.386       .  A
C263        C268   1.400       .  A
C264        C265   1.403       .  A
C265        C266   1.398       .  A
C265        N272   1.430       .  S
C266        H271   1.074       .  S
C266        C267   1.411       .  A
C267        C268   1.439       .  A
C268        N269   1.420       .  S
N269        O273   1.260       .  A
N269        O274   1.260       .  A
N272        O276   1.262       .  A
N272        O275   1.262       .  A
C277        H284   1.085       .  S
C277        C278   1.393       .  A
C277        C282   1.409       .  A
C278        C279   1.408       .  A
C279        C280   1.417       .  A
C279        N286   1.432       .  S
C280        H285   1.079       .  S
C280        C281   1.420       .  A
C281        C282   1.414       .  A
C282        N283   1.410       .  S
N283        O287   1.260       .  A
N283        O288   1.261       .  A
N286        O290   1.262       .  A
N286        O289   1.260       .  A
C291        H298   1.076       .  S
C291        C292   1.412       .  A
C291        C296   1.399       .  A
C292        C293   1.454       .  A
C293        C294   1.405       .  A
C293        N300   1.440       .  S
C294        H299   1.084       .  S
C294        C295   1.391       .  A
C295        C296   1.402       .  A
C296        N297   1.428       .  S
N297        O301   1.261       .  A
N297        O302   1.263       .  A
N300        O304   1.264       .  A
N300        O303   1.257       .  A
C305        H312   1.062       .  S
C305        C306   1.415       .  A
C305        C310   1.407       .  A
C306        C307   1.442       .  A
C307        C308   1.402       .  A
C307        N314   1.424       .  S
C308        H313   1.085       .  S
C308        C309   1.389       .  A
C309        C310   1.403       .  A
C310        N311   1.429       .  S
N311        O315   1.262       .  A
N311        O316   1.262       .  A
N314        O318   1.261       .  A
N314        O317   1.262       .  A
C319        H326   1.084       .  S
C319        C320   1.406       .  A
C319        C324   1.414       .  A
C320        C321   1.411       .  A
C321        C322   1.410       .  A
C321        N328   1.428       .  S
C322        H327   1.063       .  S
C322        C323   1.415       .  A
C323        C324   1.429       .  A
C324        N325   1.437       .  S
N325        O329   1.263       .  A
N325        O330   1.264       .  A
N328        O332   1.261       .  A
N328        O331   1.262       .  A
C333        H340   1.074       .  S
C333        C334   1.399       .  A
C333        C338   1.395       .  A
C334        C335   1.430       .  A
C335        C336   1.404       .  A
C335        N342   1.431       .  S
C336        H341   1.084       .  S
C336        C337   1.398       .  A
C337        C338   1.406       .  A
C338        N339   1.427       .  S
N339        O343   1.261       .  A
N339        O344   1.261       .  A
N342        O346   1.258       .  A
N342        O345   1.260       .  A
C347        N365   1.354       .  A
C347        C384   1.462       .  S
C347        C510   1.481       .  S
N348        N365   1.325       .  A
N348        N370   1.320       .  A
C349        N374   1.348       .  A
C349        C387   1.467       .  S
C349        H394   1.081       .  S
H350        C391   1.082       .  S
C351        N375   1.348       .  A
C351        C355   1.473       .  S
C351        H380   1.080       .  S
Co352       N565   2.093       .  S
Co352       N368   2.105       .  S
Co352     Cl1261   2.458       .  S
N353        C391   1.341       .  A
N353        N360   1.320       .  A
N353      Co1046   2.099   1_565  S
Co354      N1045   2.104   1_445  S
Co354       N357   2.108   1_545  S
Co354       N720   2.105   1_455  S
C355        N393   1.356       .  A
C355        C493   1.504       .  S
N356        N363   1.318       .  A
N356        N386   1.324       .  A
N356       Co389   2.083   1_565  S
N357        N375   1.322       .  A
N357        N393   1.329       .  A
N358        C387   1.357       .  A
N358        N368   1.326       .  A
H359        C384   1.080       .  S
N360        N381   1.329       .  A
N361        N379   1.319       .  A
N361        N366   1.322       .  A
C362        N366   1.354       .  A
C362        C390   1.465       .  S
C362        C409   1.486       .  S
N363        C378   1.336       .  A
N363       Co731   2.060   1_455  S
C364        N392   1.340       .  A
C364        C367   1.465       .  S
C364        H398   1.082       .  S
C367        N388   1.345       .  A
C367        C437   1.479       .  S
N368        N374   1.320       .  A
N369        C395   1.345       .  A
N369        N371   1.322       .  A
N369      Co1077   2.103   1_455  S
N370        C384   1.341       .  A
N371        N399   1.330       .  A
H372        C395   1.082       .  S
H373        C390   1.080       .  S
N374       Co700   2.104       .  S
N375       Co562   2.120   1_565  S
N376        N388   1.323       .  A
N376        N392   1.319       .  A
N376       Co385   2.067       .  S
C377        N381   1.351       .  A
C377        C391   1.467       .  S
C377        C468   1.487       .  S
C378        C397   1.453       .  S
C378        H382   1.081       .  S
N379        C390   1.343       .  A
C383        N399   1.357       .  A
C383        C395   1.466       .  S
C383        C451   1.492       .  S
Co385       N709   2.068       .  S
Co385      N1061   2.110       .  S
Co385     Cl1088   2.448       .  S
N386        C397   1.352       .  A
C387        C482   1.494       .  S
Co389       N548   2.120   1_544  S
N392       Co525   2.083   1_554  S
Cl396     Co1217   2.458   1_554  S
Cl396     Co1077   2.450       .  S
C397        C423   1.470       .  S
C400        C401   1.570       .  S
C400        C403   1.587       .  S
C400        C404   1.580       .  S
C400        C412   1.545       .  S
C401        C402   1.570       .  S
C401        C407   1.578       .  S
C401        C496   1.595       .  S
C402        C403   1.584       .  S
C402        C406   1.592       .  S
C402        C426   1.569       .  S
C403        C405   1.572       .  S
C403        C454   1.568       .  S
C404        C405   1.596       .  S
C404        C407   1.589       .  S
C404        C479   1.588       .  S
C405        C406   1.563       .  S
C405        C440   1.580       .  S
C406        C407   1.585       .  S
C406        C507   1.548       .  S
C407        C465   1.564       .  S
C408        H415   1.084       .  S
C408        C409   1.400       .  A
C408        C413   1.400       .  A
C409        C410   1.411       .  A
C410        C411   1.403       .  A
C410        N417   1.429       .  S
C411        H416   1.076       .  S
C411        C412   1.410       .  A
C412        C413   1.414       .  A
C413        N414   1.421       .  S
N414        O418   1.263       .  A
N414        O419   1.262       .  A
N417        O421   1.262       .  A
N417        O420   1.262       .  A
C422        H429   1.083       .  S
C422        C423   1.394       .  A
C422        C427   1.407       .  A
C423        C424   1.398       .  A
C424        C425   1.399       .  A
C424        N431   1.433       .  S
C425        H430   1.065       .  S
C425        C426   1.412       .  A
C426        C427   1.434       .  A
C427        N428   1.436       .  S
N428        O432   1.263       .  A
N428        O433   1.252       .  A
N431        O435   1.262       .  A
N431        O434   1.262       .  A
C436        H443   1.082       .  S
C436        C437   1.384       .  A
C436        C441   1.403       .  A
C437        C438   1.399       .  A
C438        C439   1.403       .  A
C438        N445   1.430       .  S
C439        H444   1.003       .  S
C439        C440   1.417       .  A
C440        C441   1.444       .  A
C441        N442   1.424       .  S
N442        O446   1.260       .  A
N442        O447   1.260       .  A
N445        O449   1.262       .  A
N445        O448   1.262       .  A
C450        H457   1.085       .  S
C450        C451   1.394       .  A
C450        C455   1.406       .  A
C451        C452   1.414       .  A
C452        C453   1.419       .  A
C452        N459   1.443       .  S
C453        H458   1.079       .  S
C453        C454   1.416       .  A
C454        C455   1.413       .  A
C455        N456   1.411       .  S
N456        O460   1.260       .  A
N456        O461   1.260       .  A
N459        O463   1.262       .  A
N459        O462   1.263       .  A
C464        H471   1.076       .  S
C464        C465   1.411       .  A
C464        C469   1.404       .  A
C465        C466   1.437       .  A
C466        C467   1.402       .  A
C466        N473   1.426       .  S
C467        H472   1.084       .  S
C467        C468   1.391       .  A
C468        C469   1.406       .  A
C469        N470   1.426       .  S
N470        O474   1.260       .  A
N470        O475   1.262       .  A
N473        O477   1.262       .  A
N473        O476   1.261       .  A
C478        H485   1.069       .  S
C478        C479   1.416       .  A
C478        C483   1.411       .  A
C479        C480   1.440       .  A
C480        C481   1.403       .  A
C480        N487   1.424       .  S
C481        H486   1.085       .  S
C481        C482   1.391       .  A
C482        C483   1.407       .  A
C483        N484   1.428       .  S
N484        O488   1.262       .  A
N484        O489   1.261       .  A
N487        O491   1.261       .  A
N487        O490   1.261       .  A
C492        H499   1.084       .  S
C492        C493   1.404       .  A
C492        C497   1.413       .  A
C493        C494   1.411       .  A
C494        C495   1.410       .  A
C494        N501   1.427       .  S
C495        H500   1.063       .  S
C495        C496   1.412       .  A
C496        C497   1.427       .  A
C497        N498   1.434       .  S
N498        O502   1.263       .  A
N498        O503   1.264       .  A
N501        O505   1.261       .  A
N501        O504   1.262       .  A
C506        H513   1.074       .  S
C506        C507   1.402       .  A
C506        C511   1.397       .  A
C507        C508   1.426       .  A
C508        C509   1.408       .  A
C508        N515   1.429       .  S
C509        H514   1.084       .  S
C509        C510   1.399       .  A
C510        C511   1.405       .  A
C511        N512   1.427       .  S
N512        O516   1.261       .  A
N512        O517   1.261       .  A
N515        O519   1.257       .  A
N515        O518   1.262       .  A
C520        N538   1.352       .  A
C520        C557   1.461       .  S
C520        C683   1.475       .  S
N521        N538   1.323       .  A
N521        N543   1.319       .  A
C522        N547   1.346       .  A
C522        C560   1.466       .  S
C522        H567   1.081       .  S
H523        C564   1.082       .  S
C524        N548   1.348       .  A
C524        C528   1.475       .  S
C524        H553   1.079       .  S
Co525       N541   2.106       .  S
Co525     Cl1088   2.459   1_556  S
N526        C564   1.341       .  A
N526        N533   1.320       .  A
N526      Co1219   2.096   1_565  S
Co527      N1218   2.104   1_445  S
Co527       N530   2.104   1_545  S
Co527       N893   2.105   1_455  S
C528        N566   1.354       .  A
C528        C666   1.502       .  S
N529        N536   1.319       .  A
N529        N559   1.324       .  A
N529       Co562   2.089   1_565  S
N530        N548   1.322       .  A
N530        N566   1.327       .  A
N531        C560   1.358       .  A
N531        N541   1.326       .  A
H532        C557   1.080       .  S
N533        N554   1.329       .  A
N534        N552   1.319       .  A
N534        N539   1.323       .  A
C535        N539   1.354       .  A
C535        C563   1.465       .  S
C535        C582   1.489       .  S
N536        C551   1.338       .  A
N536       Co904   2.065   1_455  S
C537        N565   1.341       .  A
C537        C540   1.468       .  S
C537        H571   1.082       .  S
C540        N561   1.344       .  A
C540        C610   1.481       .  S
N541        N547   1.320       .  A
N542        C568   1.345       .  A
N542        N544   1.321       .  A
N542      Co1250   2.106   1_455  S
N543        C557   1.340       .  A
N544        N572   1.329       .  A
H545        C568   1.081       .  S
H546        C563   1.080       .  S
N547       Co873   2.100       .  S
N549        N561   1.322       .  A
N549        N565   1.320       .  A
N549       Co558   2.063       .  S
C550        N554   1.351       .  A
C550        C564   1.466       .  S
C550        C641   1.486       .  S
C551        C570   1.455       .  S
C551        H555   1.082       .  S
N552        C563   1.343       .  A
C556        N572   1.355       .  A
C556        C568   1.466       .  S
C556        C624   1.491       .  S
Co558       N882   2.061       .  S
Co558      N1234   2.105       .  S
Co558     Cl1261   2.446       .  S
N559        C570   1.352       .  A
C560        C655   1.489       .  S
Cl569     Co1044   2.458       .  S
Cl569     Co1250   2.449       .  S
C570        C596   1.473       .  S
C573        C574   1.570       .  S
C573        C576   1.587       .  S
C573        C577   1.581       .  S
C573        C585   1.547       .  S
C574        C575   1.571       .  S
C574        C580   1.578       .  S
C574        C669   1.592       .  S
C575        C576   1.584       .  S
C575        C579   1.593       .  S
C575        C599   1.575       .  S
C576        C578   1.572       .  S
C576        C627   1.566       .  S
C577        C578   1.596       .  S
C577        C580   1.589       .  S
C577        C652   1.587       .  S
C578        C579   1.562       .  S
C578        C613   1.583       .  S
C579        C580   1.581       .  S
C579        C680   1.540       .  S
C580        C638   1.565       .  S
C581        H588   1.084       .  S
C581        C582   1.400       .  A
C581        C586   1.401       .  A
C582        C583   1.412       .  A
C583        C584   1.404       .  A
C583        N590   1.429       .  S
C584        H589   1.076       .  S
C584        C585   1.410       .  A
C585        C586   1.415       .  A
C586        N587   1.422       .  S
N587        O591   1.263       .  A
N587        O592   1.262       .  A
N590        O594   1.262       .  A
N590        O593   1.262       .  A
C595        H602   1.083       .  S
C595        C596   1.393       .  A
C595        C600   1.408       .  A
C596        C597   1.397       .  A
C597        C598   1.401       .  A
C597        N604   1.432       .  S
C598        H603   1.065       .  S
C598        C599   1.414       .  A
C599        C600   1.434       .  A
C600        N601   1.434       .  S
N601        O605   1.263       .  A
N601        O606   1.251       .  A
N604        O608   1.262       .  A
N604        O607   1.262       .  A
C609        H616   1.084       .  S
C609        C610   1.382       .  A
C609        C614   1.403       .  A
C610        C611   1.402       .  A
C611        C612   1.401       .  A
C611        N618   1.430       .  S
C612        H617   1.045       .  S
C612        C613   1.415       .  A
C613        C614   1.447       .  A
C614        N615   1.423       .  S
N615        O619   1.260       .  A
N615        O620   1.259       .  A
N618        O622   1.262       .  A
N618        O621   1.262       .  A
C623        H630   1.085       .  S
C623        C624   1.394       .  A
C623        C628   1.405       .  A
C624        C625   1.415       .  A
C625        C626   1.420       .  A
C625        N632   1.444       .  S
C626        H631   1.079       .  S
C626        C627   1.416       .  A
C627        C628   1.411       .  A
C628        N629   1.411       .  S
N629        O633   1.260       .  A
N629        O634   1.261       .  A
N632        O636   1.262       .  A
N632        O635   1.263       .  A
C637        H644   1.076       .  S
C637        C638   1.412       .  A
C637        C642   1.402       .  A
C638        C639   1.441       .  A
C639        C640   1.404       .  A
C639        N646   1.430       .  S
C640        H645   1.084       .  S
C640        C641   1.393       .  A
C641        C642   1.404       .  A
C642        N643   1.428       .  S
N643        O647   1.261       .  A
N643        O648   1.262       .  A
N646        O650   1.262       .  A
N646        O649   1.261       .  A
C651        H658   1.068       .  S
C651        C652   1.417       .  A
C651        C656   1.409       .  A
C652        C653   1.438       .  A
C653        C654   1.401       .  A
C653        N660   1.422       .  S
C654        H659   1.085       .  S
C654        C655   1.389       .  A
C655        C656   1.407       .  A
C656        N657   1.429       .  S
N657        O661   1.262       .  A
N657        O662   1.262       .  A
N660        O664   1.261       .  A
N660        O663   1.262       .  A
C665        H672   1.084       .  S
C665        C666   1.405       .  A
C665        C670   1.410       .  A
C666        C667   1.412       .  A
C667        C668   1.410       .  A
C667        N674   1.427       .  S
C668        H673   1.064       .  S
C668        C669   1.414       .  A
C669        C670   1.426       .  A
C670        N671   1.435       .  S
N671        O675   1.263       .  A
N671        O676   1.264       .  A
N674        O678   1.261       .  A
N674        O677   1.262       .  A
C679        H686   1.073       .  S
C679        C680   1.402       .  A
C679        C684   1.394       .  A
C680        C681   1.427       .  A
C681        C682   1.404       .  A
C681        N688   1.430       .  S
C682        H687   1.084       .  S
C682        C683   1.397       .  A
C683        C684   1.404       .  A
C684        N685   1.427       .  S
N685        O689   1.261       .  A
N685        O690   1.261       .  A
N688        O692   1.257       .  A
N688        O691   1.262       .  A
C693        N711   1.355       .  A
C693        C730   1.459       .  S
C693        C856   1.480       .  S
N694        N711   1.326       .  A
N694        N716   1.320       .  A
N694      Co1077   2.101       .  S
C695        N720   1.347       .  A
C695        C733   1.467       .  S
C695        H740   1.082       .  S
H696        C737   1.082       .  S
C697        N721   1.349       .  A
C697        C701   1.473       .  S
C697        H726   1.080       .  S
Co698      N1235   2.072   1_545  S
Co698      N1052   2.084   1_545  S
Co698       N911   2.086       .  S
Co698       N714   2.099       .  S
N699        C737   1.342       .  A
N699        N706   1.320       .  A
Co700       N703   2.106       .  S
Co700      N1053   2.086       .  S
Co700     Cl1261   2.450       .  S
C701        N739   1.354       .  A
C701        C839   1.502       .  S
N702        N709   1.319       .  A
N702        N732   1.325       .  A
N702       Co735   2.091       .  S
N703        N721   1.322       .  A
N703        N739   1.329       .  A
N704        C733   1.356       .  A
N704        N714   1.325       .  A
H705        C730   1.080       .  S
N706        N727   1.331       .  A
N706      Co1044   2.098       .  S
N707        N725   1.318       .  A
N707        N712   1.322       .  A
N707      Co1046   2.091       .  S
C708        N712   1.353       .  A
C708        C736   1.465       .  S
C708        C755   1.485       .  S
N709        C724   1.338       .  A
C710        N738   1.343       .  A
C710        C713   1.469       .  S
C710        H744   1.082       .  S
C713        N734   1.344       .  A
C713        C783   1.485       .  S
N714        N720   1.320       .  A
N715        C741   1.345       .  A
N715        N717   1.322       .  A
N716        C730   1.339       .  A
N716      Co1217   2.079   1_554  S
N717        N745   1.330       .  A
N717      Co1081   2.111       .  S
H718        C741   1.082       .  S
H719        C736   1.080       .  S
N721       Co908   2.118       .  S
N722        N734   1.322       .  A
N722        N738   1.319       .  A
N722       Co731   2.062   1_545  S
C723        N727   1.353       .  A
C723        C737   1.469       .  S
C723        C814   1.494       .  S
C724        C743   1.456       .  S
C724        H728   1.081       .  S
N725        C736   1.343       .  A
N725      Co1254   2.081       .  S
C729        N745   1.356       .  A
C729        C741   1.466       .  S
C729        C797   1.491       .  S
Co731      N1040   2.108       .  S
N732        C743   1.353       .  A
C733        C828   1.488       .  S
Co735      N1063   2.108       .  S
Co735       N894   2.121   1_554  S
Co735      N1244   2.086   1_554  S
Co735     Cl1088   2.460       .  S
N738       Co871   2.094   1_544  S
Cl742     Co1219   2.450   1_554  S
Cl742     Co1081   2.461       .  S
C743        C769   1.480       .  S
C746        C747   1.570       .  S
C746        C749   1.587       .  S
C746        C750   1.581       .  S
C746        C758   1.544       .  S
C747        C748   1.572       .  S
C747        C753   1.577       .  S
C747        C842   1.597       .  S
C748        C749   1.584       .  S
C748        C752   1.594       .  S
C748        C772   1.575       .  S
C749        C751   1.576       .  S
C749        C800   1.568       .  S
C750        C751   1.596       .  S
C750        C753   1.589       .  S
C750        C825   1.588       .  S
C751        C752   1.564       .  S
C751        C786   1.584       .  S
C752        C753   1.587       .  S
C752        C853   1.546       .  S
C753        C811   1.567       .  S
C754        H761   1.084       .  S
C754        C755   1.399       .  A
C754        C759   1.399       .  A
C755        C756   1.410       .  A
C756        C757   1.402       .  A
C756        N763   1.429       .  S
C757        H762   1.075       .  S
C757        C758   1.410       .  A
C758        C759   1.415       .  A
C759        N760   1.420       .  S
N760        O764   1.263       .  A
N760        O765   1.262       .  A
N763        O767   1.262       .  A
N763        O766   1.262       .  A
C768        H775   1.083       .  S
C768        C769   1.396       .  A
C768        C773   1.410       .  A
C769        C770   1.401       .  A
C770        C771   1.403       .  A
C770        N777   1.434       .  S
C771        H776   1.064       .  S
C771        C772   1.412       .  A
C772        C773   1.434       .  A
C773        N774   1.436       .  S
N774        O778   1.263       .  A
N774        O779   1.252       .  A
N777        O781   1.262       .  A
N777        O780   1.262       .  A
C782        H789   1.084       .  S
C782        C783   1.384       .  A
C782        C787   1.405       .  A
C783        C784   1.403       .  A
C784        C785   1.402       .  A
C784        N791   1.430       .  S
C785        H790   1.051       .  S
C785        C786   1.415       .  A
C786        C787   1.445       .  A
C787        N788   1.423       .  S
N788        O792   1.259       .  A
N788        O793   1.260       .  A
N791        O795   1.262       .  A
N791        O794   1.262       .  A
C796        H803   1.085       .  S
C796        C797   1.392       .  A
C796        C801   1.406       .  A
C797        C798   1.408       .  A
C798        C799   1.417       .  A
C798        N805   1.434       .  S
C799        H804   1.079       .  S
C799        C800   1.418       .  A
C800        C801   1.414       .  A
C801        N802   1.410       .  S
N802        O806   1.261       .  A
N802        O807   1.260       .  A
N805        O809   1.262       .  A
N805        O808   1.261       .  A
C810        H817   1.076       .  S
C810        C811   1.413       .  A
C810        C815   1.406       .  A
C811        C812   1.434       .  A
C812        C813   1.403       .  A
C812        N819   1.425       .  S
C813        H818   1.084       .  S
C813        C814   1.394       .  A
C814        C815   1.408       .  A
C815        N816   1.428       .  S
N816        O820   1.260       .  A
N816        O821   1.263       .  A
N819        O823   1.262       .  A
N819        O822   1.261       .  A
C824        H831   1.069       .  S
C824        C825   1.418       .  A
C824        C829   1.407       .  A
C825        C826   1.440       .  A
C826        C827   1.403       .  A
C826        N833   1.423       .  S
C827        H832   1.085       .  S
C827        C828   1.390       .  A
C828        C829   1.404       .  A
C829        N830   1.428       .  S
N830        O834   1.262       .  A
N830        O835   1.262       .  A
N833        O837   1.261       .  A
N833        O836   1.262       .  A
C838        H845   1.084       .  S
C838        C839   1.404       .  A
C838        C843   1.414       .  A
C839        C840   1.409       .  A
C840        C841   1.409       .  A
C840        N847   1.428       .  S
C841        H846   1.062       .  S
C841        C842   1.414       .  A
C842        C843   1.428       .  A
C843        N844   1.433       .  S
N844        O848   1.263       .  A
N844        O849   1.264       .  A
N847        O851   1.261       .  A
N847        O850   1.262       .  A
C852        H859   1.075       .  S
C852        C853   1.401       .  A
C852        C857   1.396       .  A
C853        C854   1.425       .  A
C854        C855   1.407       .  A
C854        N861   1.429       .  S
C855        H860   1.084       .  S
C855        C856   1.398       .  A
C856        C857   1.406       .  A
C857        N858   1.427       .  S
N858        O862   1.261       .  A
N858        O863   1.261       .  A
N861        O865   1.257       .  A
N861        O864   1.262       .  A
C866        N884   1.355       .  A
C866        C903   1.461       .  S
C866       C1029   1.482       .  S
N867        N884   1.325       .  A
N867        N889   1.320       .  A
N867      Co1250   2.102       .  S
C868        N893   1.350       .  A
C868        C906   1.469       .  S
C868        H913   1.081       .  S
H869        C910   1.082       .  S
C870        N894   1.348       .  A
C870        C874   1.476       .  S
C870        H899   1.078       .  S
Co871      N1062   2.080   1_556  S
Co871      N1225   2.085       .  S
Co871       N887   2.109   1_565  S
N872        C910   1.343       .  A
N872        N879   1.319       .  A
Co873       N876   2.106       .  S
Co873      N1226   2.085       .  S
Co873     Cl1088   2.453   1_556  S
C874        N912   1.356       .  A
C874       C1012   1.508       .  S
N875        N882   1.318       .  A
N875        N905   1.324       .  A
N875       Co908   2.089       .  S
N876        N894   1.322       .  A
N876        N912   1.328       .  A
N877        C906   1.357       .  A
N877        N887   1.325       .  A
H878        C903   1.080       .  S
N879        N900   1.329       .  A
N879      Co1217   2.087       .  S
N880        N898   1.318       .  A
N880        N885   1.321       .  A
N880      Co1219   2.087       .  S
C881        N885   1.352       .  A
C881        C909   1.467       .  S
C881        C928   1.486       .  S
N882        C897   1.337       .  A
C883        N911   1.339       .  A
C883        C886   1.466       .  S
C883        H917   1.082       .  S
C886        N907   1.345       .  A
C886        C956   1.479       .  S
N887        N893   1.321       .  A
N888        C914   1.346       .  A
N888        N890   1.321       .  A
N889        C903   1.340       .  A
N889      Co1044   2.079       .  S
N890        N918   1.328       .  A
N890      Co1254   2.104       .  S
H891        C914   1.082       .  S
H892        C909   1.080       .  S
N895        N907   1.323       .  A
N895        N911   1.320       .  A
N895       Co904   2.064   1_545  S
C896        N900   1.350       .  A
C896        C910   1.470       .  S
C896        C987   1.488       .  S
C897        C916   1.453       .  S
C897        H901   1.082       .  S
N898        C909   1.344       .  A
N898      Co1081   2.082   1_556  S
C902        N918   1.355       .  A
C902        C914   1.467       .  S
C902        C970   1.493       .  S
Co904      N1213   2.110       .  S
N905        C916   1.353       .  A
C906       C1001   1.495       .  S
Co908      N1236   2.110       .  S
Co908      N1071   2.089       .  S
Co908     Cl1261   2.461       .  S
Cl915     Co1046   2.449       .  S
Cl915     Co1254   2.457       .  S
C916        C942   1.471       .  S
C919        C920   1.569       .  S
C919        C922   1.587       .  S
C919        C923   1.579       .  S
C919        C931   1.543       .  S
C920        C921   1.572       .  S
C920        C926   1.578       .  S
C920       C1015   1.594       .  S
C921        C922   1.584       .  S
C921        C925   1.593       .  S
C921        C945   1.571       .  S
C922        C924   1.574       .  S
C922        C973   1.570       .  S
C923        C924   1.596       .  S
C923        C926   1.588       .  S
C923        C998   1.585       .  S
C924        C925   1.562       .  S
C924        C959   1.581       .  S
C925        C926   1.586       .  S
C925       C1026   1.546       .  S
C926        C984   1.569       .  S
C927        H934   1.084       .  S
C927        C928   1.401       .  A
C927        C932   1.400       .  A
C928        C929   1.410       .  A
C929        C930   1.403       .  A
C929        N936   1.429       .  S
C930        H935   1.075       .  S
C930        C931   1.410       .  A
C931        C932   1.414       .  A
C932        N933   1.422       .  S
N933        O937   1.262       .  A
N933        O938   1.262       .  A
N936        O940   1.262       .  A
N936        O939   1.262       .  A
C941        H948   1.083       .  S
C941        C942   1.392       .  A
C941        C946   1.406       .  A
C942        C943   1.398       .  A
C943        C944   1.401       .  A
C943        N950   1.433       .  S
C944        H949   1.067       .  S
C944        C945   1.414       .  A
C945        C946   1.434       .  A
C946        N947   1.435       .  S
N947        O951   1.263       .  A
N947        O952   1.252       .  A
N950        O954   1.262       .  A
N950        O953   1.262       .  A
C955        H962   1.085       .  S
C955        C956   1.382       .  A
C955        C960   1.401       .  A
C956        C957   1.401       .  A
C957        C958   1.399       .  A
C957        N964   1.429       .  S
C958        H963   1.059       .  S
C958        C959   1.414       .  A
C959        C960   1.448       .  A
C960        N961   1.424       .  S
N961        O965   1.259       .  A
N961        O966   1.260       .  A
N964        O968   1.262       .  A
N964        O967   1.262       .  A
C969        H976   1.085       .  S
C969        C970   1.394       .  A
C969        C974   1.407       .  A
C970        C971   1.415       .  A
C971        C972   1.420       .  A
C971        N978   1.444       .  S
C972        H977   1.079       .  S
C972        C973   1.414       .  A
C973        C974   1.414       .  A
C974        N975   1.412       .  S
N975        O979   1.260       .  A
N975        O980   1.261       .  A
N978        O982   1.262       .  A
N978        O981   1.263       .  A
C983        H990   1.075       .  S
C983        C984   1.414       .  A
C983        C988   1.405       .  A
C984        C985   1.438       .  A
C985        C986   1.402       .  A
C985        N992   1.426       .  S
C986        H991   1.084       .  S
C986        C987   1.391       .  A
C987        C988   1.406       .  A
C988        N989   1.429       .  S
N989        O993   1.261       .  A
N989        O994   1.262       .  A
N992        O996   1.262       .  A
N992        O995   1.261       .  A
C997       H1004   1.070       .  S
C997        C998   1.416       .  A
C997       C1002   1.412       .  A
C998        C999   1.438       .  A
C999       C1000   1.401       .  A
C999       N1006   1.424       .  S
C1000      H1005   1.085       .  S
C1000      C1001   1.391       .  A
C1001      C1002   1.409       .  A
C1002      N1003   1.428       .  S
N1003      O1007   1.262       .  A
N1003      O1008   1.262       .  A
N1006      O1010   1.261       .  A
N1006      O1009   1.262       .  A
C1011      H1018   1.084       .  S
C1011      C1012   1.405       .  A
C1011      C1016   1.411       .  A
C1012      C1013   1.413       .  A
C1013      C1014   1.412       .  A
C1013      N1020   1.426       .  S
C1014      H1019   1.065       .  S
C1014      C1015   1.414       .  A
C1015      C1016   1.428       .  A
C1016      N1017   1.434       .  S
N1017      O1021   1.263       .  A
N1017      O1022   1.265       .  A
N1020      O1024   1.261       .  A
N1020      O1023   1.261       .  A
C1025      H1032   1.074       .  S
C1025      C1026   1.402       .  A
C1025      C1030   1.397       .  A
C1026      C1027   1.425       .  A
C1027      C1028   1.407       .  A
C1027      N1034   1.430       .  S
C1028      H1033   1.084       .  S
C1028      C1029   1.399       .  A
C1029      C1030   1.407       .  A
C1030      N1031   1.427       .  S
N1031      O1035   1.261       .  A
N1031      O1036   1.261       .  A
N1034      O1038   1.258       .  A
N1034      O1037   1.261       .  A
C1039      N1057   1.356       .  A
C1039      C1076   1.461       .  S
C1039      C1202   1.484       .  S
N1040      N1057   1.326       .  A
N1040      N1062   1.320       .  A
C1041      N1066   1.350       .  A
C1041      C1079   1.470       .  S
C1041      H1086   1.082       .  S
H1042      C1083   1.082       .  S
C1043      N1067   1.344       .  A
C1043      C1047   1.468       .  S
C1043      H1072   1.080       .  S
Co1044     N1257   2.097       .  S
Co1044     N1060   2.101       .  S
N1045      C1083   1.343       .  A
N1045      N1052   1.319       .  A
Co1046     N1049   2.101   1_545  S
C1047      N1085   1.354       .  A
C1047      C1185   1.493       .  S
N1048      N1055   1.318       .  A
N1048      N1078   1.323       .  A
N1048     Co1081   2.088   1_565  S
N1049      N1067   1.321       .  A
N1049      N1085   1.328       .  A
N1050      C1079   1.355       .  A
N1050      N1060   1.326       .  A
H1051      C1076   1.080       .  S
N1052      N1073   1.328       .  A
N1053      N1071   1.318       .  A
N1053      N1058   1.322       .  A
C1054      N1058   1.352       .  A
C1054      C1082   1.468       .  S
C1054      C1101   1.487       .  S
N1055      C1070   1.337       .  A
C1056      N1084   1.341       .  A
C1056      C1059   1.467       .  S
C1056      H1090   1.082       .  S
C1059      N1080   1.344       .  A
C1059      C1129   1.478       .  S
N1060      N1066   1.320       .  A
N1061      C1087   1.347       .  A
N1061      N1063   1.322       .  A
N1062      C1076   1.340       .  A
N1063      N1091   1.328       .  A
H1064      C1087   1.082       .  S
H1065      C1082   1.080       .  S
N1067     Co1254   2.105   1_565  S
N1068      N1080   1.323       .  A
N1068      N1084   1.319       .  A
N1068     Co1077   2.059       .  S
C1069      N1073   1.350       .  A
C1069      C1083   1.471       .  S
C1069      C1160   1.490       .  S
C1070      C1089   1.453       .  S
C1070      H1074   1.082       .  S
N1071      C1082   1.344       .  A
C1075      N1091   1.355       .  A
C1075      C1087   1.468       .  S
C1075      C1143   1.494       .  S
N1078      C1089   1.353       .  A
C1079      C1174   1.493       .  S
Co1081     N1240   2.118   1_544  S
N1084     Co1217   2.092   1_554  S
C1089      C1115   1.469       .  S
C1092      C1093   1.576       .  S
C1092      C1095   1.588       .  S
C1092      C1096   1.581       .  S
C1092      C1104   1.547       .  S
C1093      C1094   1.575       .  S
C1093      C1099   1.582       .  S
C1093      C1188   1.596       .  S
C1094      C1095   1.583       .  S
C1094      C1098   1.598       .  S
C1094      C1118   1.576       .  S
C1095      C1097   1.572       .  S
C1095      C1146   1.572       .  S
C1096      C1097   1.594       .  S
C1096      C1099   1.597       .  S
C1096      C1171   1.594       .  S
C1097      C1098   1.564       .  S
C1097      C1132   1.577       .  S
C1098      C1099   1.576       .  S
C1098      C1199   1.542       .  S
C1099      C1157   1.572       .  S
C1100      H1107   1.084       .  S
C1100      C1101   1.401       .  A
C1100      C1105   1.402       .  A
C1101      C1102   1.409       .  A
C1102      C1103   1.402       .  A
C1102      N1109   1.428       .  S
C1103      H1108   1.077       .  S
C1103      C1104   1.411       .  A
C1104      C1105   1.416       .  A
C1105      N1106   1.423       .  S
N1106      O1110   1.263       .  A
N1106      O1111   1.262       .  A
N1109      O1113   1.262       .  A
N1109      O1112   1.262       .  A
C1114      H1121   1.083       .  S
C1114      C1115   1.391       .  A
C1114      C1119   1.403       .  A
C1115      C1116   1.398       .  A
C1116      C1117   1.403       .  A
C1116      N1123   1.433       .  S
C1117      H1122   1.066       .  S
C1117      C1118   1.416       .  A
C1118      C1119   1.429       .  A
C1119      N1120   1.427       .  S
N1120      O1124   1.263       .  A
N1120      O1125   1.249       .  A
N1123      O1127   1.262       .  A
N1123      O1126   1.262       .  A
C1128      H1135   1.085       .  S
C1128      C1129   1.382       .  A
C1128      C1133   1.400       .  A
C1129      C1130   1.403       .  A
C1130      C1131   1.400       .  A
C1130      N1137   1.429       .  S
C1131      H1136   1.052       .  S
C1131      C1132   1.412       .  A
C1132      C1133   1.443       .  A
C1133      N1134   1.422       .  S
N1134      O1138   1.261       .  A
N1134      O1139   1.259       .  A
N1137      O1141   1.262       .  A
N1137      O1140   1.262       .  A
C1142      H1149   1.085       .  S
C1142      C1143   1.396       .  A
C1142      C1147   1.408       .  A
C1143      C1144   1.416       .  A
C1144      C1145   1.420       .  A
C1144      N1151   1.445       .  S
C1145      H1150   1.079       .  S
C1145      C1146   1.416       .  A
C1146      C1147   1.412       .  A
C1147      N1148   1.411       .  S
N1148      O1152   1.261       .  A
N1148      O1153   1.260       .  A
N1151      O1155   1.262       .  A
N1151      O1154   1.263       .  A
C1156      H1163   1.077       .  S
C1156      C1157   1.413       .  A
C1156      C1161   1.402       .  A
C1157      C1158   1.455       .  A
C1158      C1159   1.406       .  A
C1158      N1165   1.439       .  S
C1159      H1164   1.084       .  S
C1159      C1160   1.389       .  A
C1160      C1161   1.404       .  A
C1161      N1162   1.426       .  S
N1162      O1166   1.260       .  A
N1162      O1167   1.262       .  A
N1165      O1169   1.264       .  A
N1165      O1168   1.257       .  A
C1170      H1177   1.063       .  S
C1170      C1171   1.415       .  A
C1170      C1175   1.409       .  A
C1171      C1172   1.445       .  A
C1172      C1173   1.406       .  A
C1172      N1179   1.426       .  S
C1173      H1178   1.085       .  S
C1173      C1174   1.391       .  A
C1174      C1175   1.404       .  A
C1175      N1176   1.428       .  S
N1176      O1180   1.262       .  A
N1176      O1181   1.262       .  A
N1179      O1183   1.261       .  A
N1179      O1182   1.262       .  A
C1184      H1191   1.084       .  S
C1184      C1185   1.403       .  A
C1184      C1189   1.413       .  A
C1185      C1186   1.407       .  A
C1186      C1187   1.405       .  A
C1186      N1193   1.429       .  S
C1187      H1192   1.061       .  S
C1187      C1188   1.412       .  A
C1188      C1189   1.430       .  A
C1189      N1190   1.439       .  S
N1190      O1194   1.264       .  A
N1190      O1195   1.263       .  A
N1193      O1197   1.262       .  A
N1193      O1196   1.262       .  A
C1198      H1205   1.073       .  S
C1198      C1199   1.401       .  A
C1198      C1203   1.397       .  A
C1199      C1200   1.429       .  A
C1200      C1201   1.407       .  A
C1200      N1207   1.431       .  S
C1201      H1206   1.084       .  S
C1201      C1202   1.398       .  A
C1202      C1203   1.407       .  A
C1203      N1204   1.428       .  S
N1204      O1208   1.262       .  A
N1204      O1209   1.261       .  A
N1207      O1211   1.258       .  A
N1207      O1210   1.260       .  A
C1212      N1230   1.357       .  A
C1212      C1249   1.458       .  S
C1212      C1375   1.481       .  S
N1213      N1230   1.325       .  A
N1213      N1235   1.320       .  A
C1214      N1239   1.349       .  A
C1214      C1252   1.470       .  S
C1214      H1259   1.081       .  S
H1215      C1256   1.082       .  S
C1216      N1240   1.349       .  A
C1216      C1220   1.473       .  S
C1216      H1245   1.081       .  S
Co1217     N1233   2.105       .  S
N1218      C1256   1.344       .  A
N1218      N1225   1.319       .  A
Co1219     N1222   2.107   1_545  S
C1220      N1258   1.355       .  A
C1220      C1358   1.502       .  S
N1221      N1228   1.317       .  A
N1221      N1251   1.324       .  A
N1221     Co1254   2.087   1_565  S
N1222      N1240   1.322       .  A
N1222      N1258   1.329       .  A
N1223      C1252   1.357       .  A
N1223      N1233   1.326       .  A
H1224      C1249   1.080       .  S
N1225      N1246   1.327       .  A
N1226      N1244   1.317       .  A
N1226      N1231   1.322       .  A
C1227      N1231   1.352       .  A
C1227      C1255   1.467       .  S
C1227      C1274   1.487       .  S
N1228      C1243   1.337       .  A
C1229      N1257   1.340       .  A
C1229      C1232   1.469       .  S
C1229      H1263   1.081       .  S
C1232      N1253   1.344       .  A
C1232      C1302   1.481       .  S
N1233      N1239   1.321       .  A
N1234      C1260   1.347       .  A
N1234      N1236   1.322       .  A
N1235      C1249   1.340       .  A
N1236      N1264   1.328       .  A
H1237      C1260   1.082       .  S
H1238      C1255   1.080       .  S
N1241      N1253   1.323       .  A
N1241      N1257   1.320       .  A
N1241     Co1250   2.060       .  S
C1242      N1246   1.349       .  A
C1242      C1256   1.472       .  S
C1242      C1333   1.489       .  S
C1243      C1262   1.454       .  S
C1243      H1247   1.081       .  S
N1244      C1255   1.344       .  A
C1248      N1264   1.355       .  A
C1248      C1260   1.467       .  S
C1248      C1316   1.494       .  S
N1251      C1262   1.354       .  A
C1252      C1347   1.495       .  S
C1262      C1288   1.473       .  S
C1265      C1266   1.577       .  S
C1265      C1268   1.589       .  S
C1265      C1269   1.583       .  S
C1265      C1277   1.547       .  S
C1266      C1267   1.579       .  S
C1266      C1272   1.585       .  S
C1266      C1361   1.600       .  S
C1267      C1268   1.584       .  S
C1267      C1271   1.600       .  S
C1267      C1291   1.584       .  S
C1268      C1270   1.574       .  S
C1268      C1319   1.573       .  S
C1269      C1270   1.591       .  S
C1269      C1272   1.596       .  S
C1269      C1344   1.595       .  S
C1270      C1271   1.564       .  S
C1270      C1305   1.578       .  S
C1271      C1272   1.577       .  S
C1271      C1372   1.542       .  S
C1272      C1330   1.575       .  S
C1273      H1280   1.084       .  S
C1273      C1274   1.401       .  A
C1273      C1278   1.402       .  A
C1274      C1275   1.409       .  A
C1275      C1276   1.402       .  A
C1275      N1282   1.429       .  S
C1276      H1281   1.076       .  S
C1276      C1277   1.410       .  A
C1277      C1278   1.415       .  A
C1278      N1279   1.423       .  S
N1279      O1283   1.263       .  A
N1279      O1284   1.262       .  A
N1282      O1286   1.262       .  A
N1282      O1285   1.262       .  A
C1287      H1294   1.083       .  S
C1287      C1288   1.390       .  A
C1287      C1292   1.403       .  A
C1288      C1289   1.400       .  A
C1289      C1290   1.408       .  A
C1289      N1296   1.434       .  S
C1290      H1295   1.067       .  S
C1290      C1291   1.418       .  A
C1291      C1292   1.428       .  A
C1292      N1293   1.425       .  S
N1293      O1297   1.263       .  A
N1293      O1298   1.248       .  A
N1296      O1300   1.262       .  A
N1296      O1299   1.263       .  A
C1301      H1308   1.084       .  S
C1301      C1302   1.384       .  A
C1301      C1306   1.399       .  A
C1302      C1303   1.405       .  A
C1303      C1304   1.401       .  A
C1303      N1310   1.429       .  S
C1304      H1309   1.060       .  S
C1304      C1305   1.412       .  A
C1305      C1306   1.440       .  A
C1306      N1307   1.420       .  S
N1307      O1311   1.262       .  A
N1307      O1312   1.260       .  A
N1310      O1314   1.261       .  A
N1310      O1313   1.262       .  A
C1315      H1322   1.085       .  S
C1315      C1316   1.396       .  A
C1315      C1320   1.409       .  A
C1316      C1317   1.416       .  A
C1317      C1318   1.418       .  A
C1317      N1324   1.444       .  S
C1318      H1323   1.078       .  S
C1318      C1319   1.416       .  A
C1319      C1320   1.413       .  A
C1320      N1321   1.411       .  S
N1321      O1325   1.260       .  A
N1321      O1326   1.260       .  A
N1324      O1328   1.261       .  A
N1324      O1327   1.263       .  A
C1329      H1336   1.075       .  S
C1329      C1330   1.413       .  A
C1329      C1334   1.400       .  A
C1330      C1331   1.457       .  A
C1331      C1332   1.408       .  A
C1331      N1338   1.442       .  S
C1332      H1337   1.084       .  S
C1332      C1333   1.390       .  A
C1333      C1334   1.403       .  A
C1334      N1335   1.428       .  S
N1335      O1339   1.261       .  A
N1335      O1340   1.262       .  A
N1338      O1342   1.265       .  A
N1338      O1341   1.255       .  A
C1343      H1350   1.062       .  S
C1343      C1344   1.416       .  A
C1343      C1348   1.411       .  A
C1344      C1345   1.441       .  A
C1345      C1346   1.405       .  A
C1345      N1352   1.422       .  S
C1346      H1351   1.085       .  S
C1346      C1347   1.390       .  A
C1347      C1348   1.406       .  A
C1348      N1349   1.428       .  S
N1349      O1353   1.262       .  A
N1349      O1354   1.262       .  A
N1352      O1356   1.261       .  A
N1352      O1355   1.262       .  A
C1357      H1364   1.084       .  S
C1357      C1358   1.404       .  A
C1357      C1362   1.414       .  A
C1358      C1359   1.409       .  A
C1359      C1360   1.408       .  A
C1359      N1366   1.428       .  S
C1360      H1365   1.061       .  S
C1360      C1361   1.413       .  A
C1361      C1362   1.431       .  A
C1362      N1363   1.436       .  S
N1363      O1367   1.264       .  A
N1363      O1368   1.264       .  A
N1366      O1370   1.262       .  A
N1366      O1369   1.262       .  A
C1371      H1378   1.074       .  S
C1371      C1372   1.401       .  A
C1371      C1376   1.397       .  A
C1372      C1373   1.428       .  A
C1373      C1374   1.403       .  A
C1373      N1380   1.430       .  S
C1374      H1379   1.084       .  S
C1374      C1375   1.396       .  A
C1375      C1376   1.408       .  A
C1376      N1377   1.428       .  S
N1377      O1381   1.261       .  A
N1377      O1382   1.261       .  A
N1380      O1384   1.258       .  A
N1380      O1383   1.259       .  A
