geometry optimzed in LAMMPS
_audit_creation_date              2020-12-01 
_audit_creation_method            'lammps2cif' 
_symmetry_space_group_name_H-M    'P1' 
_symmetry_Int_Tables_number       1 
_symmetry_cell_setting            triclinic 
loop_ 
_symmetry_equiv_pos_as_xyz 
  x,y,z 
_cell_length_a                    34.70193664 
_cell_length_b                    34.66454563993531 
_cell_length_c                    25.946161066360705 
_cell_angle_alpha                 86.50625527722069 
_cell_angle_beta                  92.02281745969573 
_cell_angle_gamma                 128.3354747871021 
loop_ 
_atom_site_label 
_atom_site_type_symbol 
_atom_site_fract_x 
_atom_site_fract_y 
_atom_site_fract_z 
_atom_site_charge 
N1          N  0.53514455  0.86167389  0.50799873    -0.02900
C2          C  0.51709324  0.85498428  0.05638380    -0.00300
C3          C  0.49462572  0.80703858  0.07489417    -0.23200
C4          C  0.49887636  0.78375873  0.03702995    -0.23400
C5          C  0.52658986  0.81873630  0.49762909    -0.00400
H6          H  0.47808355  0.79059393  0.11240700     0.13400
H7          H  0.48512763  0.74587556  0.03925000     0.13400
N8          N  0.28400395  0.89115889  0.53825559    -0.02900
C9          C  0.28962867  0.91751211  0.49445866    -0.00300
C10         C  0.27108200  0.94216746  0.50296134    -0.23200
C11         C  0.26171224  0.93661890  0.05531271    -0.23400
C12         C  0.27692666  0.91059213  0.07745495    -0.00400
H13         H  0.27482447  0.97017063  0.47735773     0.13400
H14         H  0.25809175  0.96062979  0.07556381     0.13400
O15         O  0.58146251  0.03612311  0.34818087    -0.79500
O16         O  0.63321425  0.11858673  0.22261475    -0.79600
O17         O  0.53523345  0.00082465  0.22730732    -0.79600
O18         O  0.63250301  0.19294282  0.33193197    -0.79500
O19         O  0.56267398  0.04830586  0.15569212    -0.79600
O20         O  0.64306485  0.13734398  0.34958505    -0.79600
O21         O  0.63484333  0.18326015  0.23025729    -0.79500
O22         O  0.50448586  0.98029497  0.32856384    -0.79600
C23         C  0.54302165  0.99189787  0.35173125     1.10100
C24         C  0.65567978  0.16486324  0.21863107     1.10000
C25         C  0.54757717  0.00808270  0.17885169     1.10200
C26         C  0.65884944  0.18130025  0.35018307     1.10000
O27         O  0.56187431  0.13234715  0.39066102    -0.79500
O28         O  0.48434056  0.03518064  0.20017525    -0.79600
O29         O  0.46218230  0.03022220  0.31625278    -0.79600
O30         O  0.53009258  0.13853135  0.22132560    -0.79500
O31         O  0.56735457  0.12710586  0.16739676    -0.79600
O32         O  0.50226901  0.03406130  0.38572172    -0.79600
O33         O  0.52654729  0.14058596  0.32376933    -0.79500
O34         O  0.44273065  0.96464400  0.24774188    -0.79600
Co35       Co  0.57250671  0.08525802  0.36369904     1.51500
Co36       Co  0.56070254  0.07553629  0.21571249     1.51700
Co37       Co  0.50158644  0.02158105  0.27271528     1.51600
Co38       Co  0.57876054  0.15957047  0.27705370     1.51500
O39         O  0.55881161  0.09121758  0.28778554    -1.41500
C40         C  0.53613144  0.14434935  0.37105226     1.10100
C41         C  0.44358883  0.99136432  0.21134686     1.10200
C42         C  0.46294992  0.02229429  0.36428559     1.10100
C43         C  0.54515337  0.14418196  0.17607436     1.10100
N44         N  0.51253184  0.26112780  0.48831014    -0.02900
C45         C  0.50831357  0.29673879  0.47367485    -0.00300
C46         C  0.53558511  0.33504443  0.00693731    -0.23200
C47         C  0.55577388  0.32188217  0.04345714    -0.23400
C48         C  0.54091792  0.27619347  0.03138195    -0.00400
H49         H  0.53564389  0.36620895  0.00866690     0.13400
H50         H  0.57577153  0.34170636  0.07745410     0.13400
N51         N  0.82163813  0.29520510  0.03999448    -0.02900
C52         C  0.81548747  0.27064189  0.49732227    -0.00300
C53         C  0.82185233  0.23587347  0.51172731    -0.23200
C54         C  0.82575436  0.23524196  0.06465204    -0.23400
C55         C  0.82074308  0.26903451  0.08191329    -0.00400
H56         H  0.81439825  0.20719471  0.48821011     0.13400
H57         H  0.82086897  0.20529605  0.08745655     0.13400
O58         O  0.11085361  0.68739828  0.36777723    -0.79500
O59         O  0.03013357  0.61677797  0.16455662    -0.79600
O60         O  0.15664206  0.66875720  0.25301185    -0.79600
O61         O  0.95009874  0.57174498  0.33130815    -0.79500
O62         O  0.10237245  0.68095353  0.23208254    -0.79600
O63         O  0.01362902  0.64203189  0.35596337    -0.79600
O64         O  0.99168048  0.61467878  0.23210317    -0.79500
O65         O  0.15936788  0.66776526  0.35622272    -0.79600
C66         C  0.15307164  0.69852526  0.36886289     1.10100
C67         C  0.99886123  0.61982922  0.18263504     1.10000
C68         C  0.14638697  0.69594006  0.23291329     1.10200
C69         C  0.96758117  0.61039967  0.35520061     1.10000
O70         O  0.99111259  0.54903083  0.39750688    -0.79500
O71         O  0.09516059  0.60285044  0.19334349    -0.79600
O72         O  0.09480026  0.55990655  0.36042474    -0.79600
O73         O  0.92924676  0.51552951  0.24918333    -0.79500
O74         O  0.99720027  0.53269228  0.21938553    -0.79600
O75         O  0.09039098  0.60030029  0.41833864    -0.79600
O76         O  0.98128964  0.51180194  0.32649562    -0.79500
O77         O  0.09557025  0.56018279  0.25690280    -0.79600
Co78       Co  0.05171780  0.61922367  0.37998889     1.51500
Co79       Co  0.04961343  0.60906050  0.23037697     1.51700
Co80       Co  0.12213905  0.61256853  0.30654861     1.51600
Co81       Co  0.98952568  0.56378967  0.28199641     1.51500
O82         O  0.05965579  0.60579993  0.30674316    -1.41500
C83         C  0.97152625  0.50990007  0.37307318     1.10100
C84         C  0.10401941  0.57417425  0.20999616     1.10200
C85         C  0.09982924  0.57197270  0.40619474     1.10100
C86         C  0.94957378  0.50355831  0.22204021     1.10100
N87         N  0.20675123  0.52828492  0.03597239    -0.02900
C88         C  0.20725354  0.52833304  0.08827723    -0.00300
C89         C  0.23600127  0.51595358  0.10807176    -0.23200
C90         C  0.25369716  0.50806729  0.06640059    -0.23400
C91         C  0.23528772  0.51587356  0.02219412    -0.00400
H92         H  0.24309484  0.51262717  0.14839953     0.13400
H93         H  0.27579614  0.49583371  0.06872263     0.13400
N94         N  0.82852169  0.34026573  0.04055367    -0.02900
C95         C  0.82237548  0.35786867  0.08248111    -0.00300
C96         C  0.80094711  0.37948096  0.06686731    -0.23200
C97         C  0.79996672  0.38080578  0.01413677    -0.23400
C98         C  0.82068958  0.35967463  0.49862231    -0.00400
H99         H  0.79595732  0.40095871  0.09018496     0.13400
H100        H  0.79377431  0.40338249  0.49069474     0.13400
N101        N  0.84987827  0.61653009  0.50510418    -0.02900
C102        C  0.85633115  0.61201170  0.05663860    -0.00300
C103        C  0.81849087  0.60288745  0.08511108    -0.23200
C104        C  0.78767022  0.60267648  0.05111146    -0.23400
C105        C  0.80762494  0.61210329  0.50238914    -0.00400
H106        H  0.81465586  0.59855965  0.12673602     0.13400
H107        H  0.75606209  0.59906954  0.06260129     0.13400
N108        N  0.28964558  0.85367821  0.04190803    -0.02900
C109        C  0.29441432  0.83380316  0.08592985    -0.00300
C110        C  0.31789154  0.81456207  0.07427841    -0.23200
C111        C  0.32144179  0.81699355  0.52154381    -0.23400
C112        C  0.30036010  0.83807437  0.50181324    -0.00400
H113        H  0.32256681  0.79190645  0.09989747     0.13400
H114        H  0.32932665  0.79640790  0.50095016     0.13400
O115        O  0.45384855  0.48096000  0.10095392    -0.79500
O116        O  0.40587738  0.48838608  0.24854337    -0.79600
O117        O  0.53336051  0.47836327  0.23753012    -0.79600
O118        O  0.43702141  0.54997720  0.11667113    -0.79500
O119        O  0.45782576  0.44869635  0.25670230    -0.79600
O120        O  0.48344505  0.56371611  0.05020118    -0.79600
O121        O  0.42935251  0.56205132  0.22045604    -0.79500
O122        O  0.49976579  0.46550630  0.13961371    -0.79600
C123        C  0.46570027  0.45345906  0.10830647     1.10100
C124        C  0.39868767  0.52031455  0.24499484     1.10000
C125        C  0.49298925  0.44644520  0.26189484     1.10200
C126        C  0.44430347  0.55438608  0.06726663     1.10000
O127        O  0.54765376  0.62697529  0.12215159    -0.79500
O128        O  0.54026365  0.54132732  0.29423273    -0.79600
O129        O  0.59614368  0.53619042  0.14582162    -0.79600
O130        O  0.53573163  0.62630251  0.23156706    -0.79500
O131        O  0.48706576  0.57429076  0.29340378    -0.79600
O132        O  0.56116390  0.55805156  0.08904010    -0.79600
O133        O  0.49924543  0.64376428  0.14683608    -0.79500
O134        O  0.58701663  0.58187616  0.22429437    -0.79600
Co135      Co  0.49985928  0.55111237  0.11690676     1.51500
Co136      Co  0.47268430  0.51280571  0.26891886     1.51700
Co137      Co  0.54281471  0.52637430  0.18005244     1.51600
Co138      Co  0.48800779  0.58527621  0.17580713     1.51500
O139        O  0.49230553  0.53160806  0.19382944    -1.41500
C140        C  0.53511508  0.65534771  0.11918502     1.10100
C141        C  0.58208132  0.57341646  0.27300722     1.10200
C142        C  0.59479825  0.55275859  0.10082108     1.10100
C143        C  0.51952769  0.61825392  0.27709883     1.10100
N144        N  0.46016643  0.32305866  0.44106214    -0.02900
C145        C  0.41973441  0.30755858  0.96819610    -0.00300
C146        C  0.39256809  0.25778808  0.98093310    -0.23200
C147        C  0.41986228  0.24399687  0.96602356    -0.23400
C148        C  0.46418022  0.28640528  0.44716447    -0.00400
H149        H  0.36175957  0.23648288  0.00744170     0.13400
H150        H  0.41335710  0.21042529  0.98043476     0.13400
N151        N  0.27962751  0.51051658  0.94907125    -0.02900
C152        C  0.26791734  0.49686877  0.39934378    -0.00300
C153        C  0.22171590  0.48233170  0.38770599    -0.23200
C154        C  0.20441136  0.48770250  0.43136759    -0.23400
C155        C  0.24073688  0.50584441  0.96861927    -0.00400
H156        H  0.20304455  0.47022134  0.35099751     0.13400
H157        H  0.16858626  0.47840816  0.43525349     0.13400
N158        N  0.74457363  0.61281280  0.44894866    -0.02900
C159        C  0.74671689  0.63197340  0.40079963    -0.00300
C160        C  0.79338761  0.65848737  0.38025715    -0.23200
C161        C  0.82077781  0.65412401  0.41527509    -0.23400
C162        C  0.79024326  0.62501926  0.45653091    -0.00400
H163        H  0.80595434  0.67795384  0.34288452     0.13400
H164        H  0.85929354  0.67151576  0.41087275     0.13400
N165        N  0.55972153  0.78080154  0.95037240    -0.02900
C166        C  0.56291870  0.77679131  0.39839110    -0.00300
C167        C  0.55615871  0.80675673  0.36933073    -0.23200
C168        C  0.54493726  0.82740250  0.40270179    -0.23400
C169        C  0.54613433  0.81073803  0.45206612    -0.00400
H170        H  0.55319325  0.80831223  0.32769270     0.13400
H171        H  0.53209734  0.84804863  0.39087968     0.13400
C172        C  0.36105336  0.51339709  0.27930276    -0.04900
C173        C  0.37117074  0.55485524  0.30158096    -0.32300
C174        C  0.34224422  0.54965039  0.34204656     0.36900
C175        C  0.30135000  0.50258673  0.35994969    -0.05200
C176        C  0.28966497  0.46113499  0.33636237    -0.32200
C177        C  0.31959981  0.46615495  0.29709498     0.36900
H178        H  0.40301622  0.59156004  0.28925509     0.17200
O179        O  0.35346174  0.59089543  0.36298048    -0.59700
H180        H  0.25768212  0.42467045  0.34914642     0.17200
O181        O  0.30848438  0.42461126  0.27708311    -0.59800
H182        H  0.28558285  0.41691807  0.24820570     0.44200
H183        H  0.37935281  0.60044221  0.38881855     0.44200
C184        C  0.40575137  0.54588280  0.03187090    -0.04900
C185        C  0.37450571  0.50105682  0.00781440    -0.32300
C186        C  0.33338632  0.48951024  0.97991502     0.36900
C187        C  0.32303666  0.52305937  0.97587452    -0.05200
C188        C  0.35522850  0.56855219  0.99879003    -0.32200
C189        C  0.39636897  0.58006392  0.02658725     0.36900
H190        H  0.38083300  0.47410579  0.01240847     0.17200
O191        O  0.30142220  0.44393891  0.95985668    -0.59700
H192        H  0.34793260  0.59478179  0.49560070     0.17200
O193        O  0.42652152  0.62429485  0.04964464    -0.59800
H194        H  0.45344890  0.64669533  0.02447028     0.44200
H195        H  0.32040537  0.44262348  0.93330717     0.44200
C196        C  0.53420294  0.65914555  0.31042845    -0.04900
C197        C  0.50261482  0.64922628  0.35085929    -0.32300
C198        C  0.51232918  0.68688981  0.38044621     0.36900
C199        C  0.55574999  0.73551281  0.37230322    -0.05200
C200        C  0.58777925  0.74558472  0.33243354    -0.32200
C201        C  0.57716283  0.70805475  0.30142999     0.36900
H202        H  0.46896903  0.61225998  0.35841436     0.17200
O203        O  0.47874170  0.67589007  0.41691924    -0.59700
H204        H  0.62048894  0.78304505  0.32435787     0.17200
O205        O  0.60910768  0.71966667  0.26262680    -0.59800
H206        H  0.59821826  0.72925216  0.23207361     0.44200
H207        H  0.45963597  0.68573535  0.40030991     0.44200
C208        C  0.56914350  0.75828459  0.99411605    -0.04900
C209        C  0.57212991  0.72006776  0.98761325    -0.32300
C210        C  0.56746522  0.69007354  0.02956984     0.36900
C211        C  0.55798150  0.69661287  0.07930643    -0.05200
C212        C  0.56596551  0.74068080  0.08753016    -0.32200
C213        C  0.57678451  0.77378676  0.04549610     0.36900
H214        H  0.57811307  0.71229277  0.45075431     0.17200
O215        O  0.56895810  0.65246570  0.02056438    -0.59700
H216        H  0.56470258  0.74978687  0.12631607     0.17200
O217        O  0.59597339  0.82106578  0.05528858    -0.59800
H218        H  0.63150029  0.84129218  0.04726567     0.44200
H219        H  0.60367342  0.66625185  0.02619196     0.44200
C220        C  0.62585105  0.59425279  0.30475390    -0.04900
C221        C  0.66207829  0.59256008  0.28643317    -0.32300
C222        C  0.70059325  0.60371577  0.31803091     0.36900
C223        C  0.70431713  0.61845986  0.36872383    -0.05200
C224        C  0.66848721  0.62125818  0.38679589    -0.32200
C225        C  0.62869049  0.60816070  0.35544357     0.36900
H226        H  0.65909874  0.57979315  0.24827651     0.17200
O227        O  0.73274629  0.59702892  0.30007947    -0.59700
H228        H  0.67118635  0.63377267  0.42482530     0.17200
O229        O  0.59335478  0.60994653  0.37414563    -0.59800
H230        H  0.57213077  0.57962197  0.39667992     0.44200
H231        H  0.75227054  0.62332713  0.27261627     0.44200
C232        C  0.63282196  0.56710391  0.06139847    -0.04900
C233        C  0.67306070  0.61698055  0.05224633    -0.32300
C234        C  0.70985369  0.63169441  0.01610724     0.36900
C235        C  0.70698617  0.59666676  0.98738936    -0.05200
C236        C  0.66658833  0.54663943  0.99617821    -0.32200
C237        C  0.62986492  0.53181315  0.03293187     0.36900
H238        H  0.67618791  0.64473882  0.07353866     0.17200
O239        O  0.74844981  0.68075755  0.00834706    -0.59700
H240        H  0.66349867  0.51914131  0.47444791     0.17200
O241        O  0.59124298  0.48272401  0.04077013    -0.59800
H242        H  0.56478860  0.47674392  0.51762979     0.44200
H243        H  0.77361672  0.68737083  0.03386677     0.44200
C244        C  0.48857129  0.41119252  0.30232903    -0.04900
C245        C  0.44339939  0.36397896  0.30980296    -0.32300
C246        C  0.43493238  0.33360000  0.35349929     0.36900
C247        C  0.47132647  0.35063359  0.39207293    -0.05200
C248        C  0.51730681  0.39674159  0.38354688    -0.32200
C249        C  0.52621796  0.42678556  0.33904891     0.36900
H250        H  0.41390692  0.35115599  0.28237461     0.17200
O251        O  0.38986715  0.28822817  0.35954695    -0.59700
H252        H  0.54559182  0.41041188  0.41265881     0.17200
O253        O  0.57030961  0.47317974  0.33443695    -0.59800
H254        H  0.59177027  0.46951789  0.31478619     0.44200
H255        H  0.39462823  0.26451783  0.34852792     0.44200
C256        C  0.42292977  0.34060409  0.00505760    -0.04900
C257        C  0.43176997  0.33571541  0.05755996    -0.32300
C258        C  0.44278700  0.37049634  0.09253355     0.36900
C259        C  0.44444748  0.41085555  0.07563663    -0.05200
C260        C  0.43331854  0.41450000  0.02365294    -0.32200
C261        C  0.42355139  0.38028238  0.98828570     0.36900
H262        H  0.43265792  0.30606915  0.07107157     0.17200
O263        O  0.45412409  0.36587572  0.14255183    -0.59700
H264        H  0.43535744  0.44578524  0.00951250     0.17200
O265        O  0.41527920  0.38625501  0.93740424    -0.59800
H266        H  0.44770004  0.41477818  0.92325353     0.44200
H267        H  0.42297814  0.34879219  0.16213421     0.44200
C268        C  0.89891818  0.61978358  0.08247184    -0.04900
C269        C  0.92060884  0.65183643  0.12350239    -0.32300
C270        C  0.95428810  0.65340358  0.15628109     0.36900
C271        C  0.96816255  0.62420884  0.14675118    -0.05200
C272        C  0.94836816  0.59400318  0.10429096    -0.32200
C273        C  0.91323768  0.59095933  0.07265367     0.36900
H274        H  0.90957902  0.67406160  0.13157434     0.17200
O275        O  0.97324454  0.68328753  0.19737857    -0.59700
H276        H  0.95779068  0.57017779  0.09761354     0.17200
O277        O  0.88973602  0.55642647  0.03583690    -0.59800
H278        H  0.91535875  0.56651569  0.01016598     0.44200
H279        H  0.94737226  0.66510248  0.22441679     0.44200
C280        C  0.93616889  0.61632883  0.38784603    -0.04900
C281        C  0.95867838  0.65249084  0.42511372    -0.32300
C282        C  0.93091084  0.65470920  0.46178438     0.36900
C283        C  0.87910814  0.61971837  0.46298712    -0.05200
C284        C  0.85637443  0.58587661  0.42343823    -0.32200
C285        C  0.88420572  0.58475306  0.38571749     0.36900
H286        H  0.99837378  0.67869607  0.42694202     0.17200
O287        O  0.95465826  0.69194305  0.99565101    -0.59700
H288        H  0.81667393  0.55957592  0.42229574     0.17200
O289        O  0.85996866  0.55253821  0.34697834    -0.59800
H290        H  0.86104605  0.57236831  0.31701715     0.44200
H291        H  0.97801609  0.68906855  0.01502586     0.44200
C292        C  0.91899080  0.45667814  0.19458120    -0.04900
C293        C  0.93858166  0.45036178  0.15245890    -0.32300
C294        C  0.90785161  0.41193369  0.11910489     0.36900
C295        C  0.85651330  0.37926197  0.12724393    -0.05200
C296        C  0.83816854  0.38148812  0.17340251    -0.32200
C297        C  0.86878911  0.41969259  0.20684323     0.36900
H298        H  0.97722594  0.47741864  0.14290704     0.17200
O299        O  0.92785078  0.41067869  0.07539409    -0.59700
H300        H  0.79893959  0.35659912  0.18074522     0.17200
O301        O  0.84832714  0.42233570  0.24937844    -0.59800
H302        H  0.85140654  0.40366876  0.27743728     0.44200
H303        H  0.93712817  0.38932561  0.08530303     0.44200
C304        C  0.85263048  0.38009630  0.45195601    -0.04900
C305        C  0.84324156  0.40281498  0.41264201    -0.32300
C306        C  0.88218729  0.44504026  0.38590330     0.36900
C307        C  0.93043545  0.46226002  0.39543386    -0.05200
C308        C  0.93845550  0.43323215  0.42545533    -0.32200
C309        C  0.89968521  0.39170157  0.45352793     0.36900
H310        H  0.80674900  0.39227437  0.40768342     0.17200
O311        O  0.87311809  0.47124816  0.35350323    -0.59700
H312        H  0.97501096  0.44397629  0.42887156     0.17200
O313        O  0.90958873  0.36593126  0.98545699    -0.59800
H314        H  0.91343232  0.34679168  0.96227044     0.44200
H315        H  0.86346969  0.48563727  0.37667193     0.44200
C316        C  0.12836102  0.56128786  0.17704313    -0.04900
C317        C  0.12542580  0.51960740  0.19040995    -0.32300
C318        C  0.15075017  0.50850852  0.16184541     0.36900
C319        C  0.18062179  0.53982025  0.11971866    -0.05200
C320        C  0.18395650  0.58173848  0.10667026    -0.32200
C321        C  0.15788475  0.59234293  0.13447388     0.36900
H322        H  0.10313634  0.49529880  0.22299583     0.17200
O323        O  0.14545396  0.46653522  0.17505282    -0.59700
H324        H  0.20720121  0.60669015  0.07489706     0.17200
O325        O  0.16247168  0.63381018  0.12025662    -0.59800
H326        H  0.19136987  0.66062951  0.13944143     0.44200
H327        H  0.11949629  0.44141963  0.15182711     0.44200
C328        C  0.12626537  0.56111034  0.44193292    -0.04900
C329        C  0.17702172  0.58796186  0.43447536    -0.32300
C330        C  0.20372058  0.57731824  0.46499089     0.36900
C331        C  0.17950850  0.53842876  0.50269730    -0.05200
C332        C  0.12871547  0.51157790  0.51024048    -0.32200
C333        C  0.10203579  0.52279927  0.48022540     0.36900
H334        H  0.19605750  0.61749186  0.40488597     0.17200
O335        O  0.25350356  0.60530089  0.95803567    -0.59700
H336        H  0.10985203  0.48196275  0.53971173     0.17200
O337        O  0.05264217  0.49655569  0.48865495    -0.59800
H338        H  0.03777851  0.46169695  0.48371359     0.44200
H339        H  0.26822237  0.63109653  0.98364169     0.44200
C340        C  0.18530964  0.74148035  0.20311143    -0.04900
C341        C  0.17251041  0.75590677  0.15832747    -0.32300
C342        C  0.20805681  0.78911292  0.12111898     0.36900
C343        C  0.25776418  0.80918329  0.12881508    -0.05200
C344        C  0.27097901  0.79830716  0.17605345    -0.32200
C345        C  0.23538005  0.76475909  0.21284055     0.36900
H346        H  0.13422582  0.73814801  0.14976513     0.17200
O347        O  0.19269347  0.79709175  0.07524430    -0.59700
H348        H  0.30895541  0.81395733  0.18331316     0.17200
O349        O  0.24975979  0.75353928  0.25736963    -0.59800
H350        H  0.25737202  0.73178669  0.24718231     0.44200
H351        H  0.18146779  0.81626673  0.08355121     0.44200
C352        C  0.27017206  0.81961056  0.45367458    -0.04900
C353        C  0.22330258  0.80747844  0.45376590    -0.32300
C354        C  0.18569105  0.77108595  0.42277464     0.36900
C355        C  0.19447781  0.74576482  0.39072973    -0.05200
C356        C  0.24304593  0.76321335  0.38467421    -0.32200
C357        C  0.28107022  0.80110858  0.41448051     0.36900
H358        H  0.21364409  0.82214241  0.98149717     0.17200
O359        O  0.13955467  0.75777062  0.42781533    -0.59700
H360        H  0.25123817  0.74574627  0.35888617     0.17200
O361        O  0.32788720  0.81667096  0.40804306    -0.59800
H362        H  0.34277530  0.84388962  0.38119659     0.44200
H363        H  0.12507778  0.73481808  0.45874817     0.44200
C364        C  0.70277168  0.19772232  0.19093736    -0.04900
C365        C  0.74247599  0.19732407  0.20158881    -0.32300
C366        C  0.78493637  0.22607289  0.17029854     0.36900
C367        C  0.78630558  0.25276330  0.12589305    -0.05200
C368        C  0.74664798  0.25349338  0.11731423    -0.32200
C369        C  0.70658012  0.22841982  0.15020331     0.36900
H370        H  0.74038424  0.17455613  0.23364992     0.17200
O371        O  0.82337498  0.22533824  0.18152515    -0.59700
H372        H  0.74400027  0.27046691  0.08275565     0.17200
O373        O  0.66949362  0.23159998  0.14000451    -0.59800
H374        H  0.65762878  0.21932414  0.10498499     0.44200
H375        H  0.84482637  0.25268470  0.20490600     0.44200
C376        C  0.70413104  0.21630293  0.37999526    -0.04900
C377        C  0.74756745  0.22311880  0.36996632    -0.32300
C378        C  0.78682685  0.24637702  0.40523537     0.39900
C379        C  0.78241121  0.26146145  0.45260417    -0.05200
C380        C  0.73985409  0.25699883  0.46080781    -0.32200
C381        C  0.70142677  0.23539389  0.42483646     0.36900
H382        H  0.75022694  0.20847529  0.33572528     0.17200
O383        O  0.82794928  0.25090789  0.39472962    -0.59700
H384        H  0.73438526  0.26694543  0.49684909     0.17200
O385        O  0.65947925  0.22914517  0.43618666    -0.59800
H386        H  0.63983434  0.19872548  0.45889600     0.44200
H387        H  0.85066350  0.28377760  0.37679132     0.44200
C388        C  0.54176421  0.17514457  0.13677547    -0.04900
C389        C  0.52354057  0.19936813  0.15194599    -0.32300
C390        C  0.52410860  0.23272072  0.11816139     0.36900
C391        C  0.54384792  0.24337558  0.06810925    -0.05200
C392        C  0.56273240  0.21981253  0.05285627    -0.32200
C393        C  0.55987864  0.18441969  0.08589142     0.36900
H394        H  0.50887878  0.19274458  0.19046923     0.17200
O395        O  0.50352802  0.25341845  0.13386966    -0.59700
H396        H  0.57824087  0.22761247  0.01458253     0.17200
O397        O  0.57468891  0.15909490  0.06786138    -0.59800
H398        H  0.54542792  0.13074626  0.05045700     0.44200
H399        H  0.52876475  0.28056061  0.15584980     0.44200
C400        C  0.50726445  0.22702767  0.45404895    -0.04900
C401        C  0.53397850  0.24615584  0.40782347    -0.32300
C402        C  0.54247398  0.21870215  0.38057465     0.36900
C403        C  0.52459080  0.17133175  0.39970662    -0.05200
C404        C  0.49443069  0.15033846  0.44369513    -0.32200
C405        C  0.48448803  0.17757352  0.47007260     0.36900
H406        H  0.55127482  0.28391051  0.39475898     0.17200
O407        O  0.57017375  0.23934550  0.33622121    -0.59700
H408        H  0.47886371  0.11318744  0.45756569     0.17200
O409        O  0.45557379  0.15700522  0.51348299    -0.59800
H410        H  0.42155914  0.14003976  0.50078222     0.44200
H411        H  0.60469764  0.25748584  0.34772797     0.44200
C412        C  0.31534752  0.93579945  0.11824080    -0.04900
C413        C  0.31005191  0.91239550  0.16631034    -0.32300
C414        C  0.35113056  0.93007297  0.19789922     0.36900
C415        C  0.39796061  0.97350305  0.18249316    -0.05200
C416        C  0.40113057  0.00105272  0.13869448    -0.32200
C417        C  0.36041355  0.98283735  0.10675966     0.36900
H418        H  0.27434260  0.87975439  0.17886866     0.17200
O419        O  0.34517049  0.90393033  0.24287632    -0.59700
H420        H  0.43576237  0.03621878  0.12785059     0.17200
O421        O  0.36459460  0.01129523  0.06455167    -0.59800
H422        H  0.39480359  0.02327452  0.04563713     0.44200
H423        H  0.33283305  0.91409736  0.26842910     0.44200
C424        C  0.41742372  0.99482725  0.39557766    -0.04900
C425        C  0.41871496  0.97846634  0.44574505    -0.32300
C426        C  0.37749753  0.95222539  0.47768543     0.36900
C427        C  0.33239040  0.93998749  0.45901629    -0.05200
C428        C  0.33064302  0.95542155  0.40821488    -0.32200
C429        C  0.37266617  0.98267414  0.37654264     0.36900
H430        H  0.45226655  0.98633051  0.46105730     0.17200
O431        O  0.38188005  0.93870964  0.52718254    -0.59700
H432        H  0.29676733  0.94708127  0.39338556     0.17200
O433        O  0.36943849  0.99719101  0.32730091    -0.59800
H434        H  0.37823101  0.03018894  0.33023220     0.44200
H435        H  0.41284041  0.96766379  0.54168958     0.44200
C436        C  0.52409463  0.89438712  0.08725193    -0.04900
C437        C  0.56592472  0.94391250  0.07922350    -0.32300
C438        C  0.57471227  0.98105782  0.10935076     0.36900
C439        C  0.54236088  0.96921479  0.14983779    -0.05200
C440        C  0.50099660  0.91982057  0.15853585    -0.32200
C441        C  0.49118987  0.88292278  0.12725155     0.36900
H442        H  0.59262957  0.95407793  0.05004872     0.17200
O443        O  0.61523406  0.02890897  0.09888419    -0.59700
H444        H  0.47477974  0.91000686  0.18832786     0.17200
O445        O  0.44846429  0.83599256  0.13554636    -0.59800
H446        H  0.42449621  0.83334148  0.11090547     0.44200
H447        H  0.64185779  0.03348387  0.12041800     0.44200
C448        C  0.54096003  0.95639955  0.38933289    -0.04900
C449        C  0.58444783  0.96435500  0.40591864    -0.32300
C450        C  0.58332016  0.93368755  0.44506747     0.36900
C451        C  0.53853791  0.89515326  0.46898005    -0.05200
C452        C  0.49536958  0.88745941  0.45283830    -0.32200
C453        C  0.49614448  0.91729313  0.41341356     0.36900
H454        H  0.61941534  0.99457501  0.38871729     0.17200
O455        O  0.62607320  0.94219779  0.46054696    -0.59700
H456        H  0.46070378  0.85778543  0.47103060     0.17200
O457        O  0.45313306  0.90947092  0.40088648    -0.59800
H458        H  0.43760514  0.88445687  0.37436368     0.44200
H459        H  0.63106575  0.92462018  0.43630719     0.44200
N460        N  0.53514240  0.86167399  0.00798792    -0.02900
C461        C  0.51708977  0.85498069  0.55639210    -0.00300
C462        C  0.49461208  0.80703090  0.57489592    -0.23200
C463        C  0.49886363  0.78375261  0.53703035    -0.23400
C464        C  0.52659415  0.81873825  0.99762260    -0.00400
H465        H  0.47806236  0.79058228  0.61240518     0.13400
H466        H  0.48511047  0.74586792  0.53924561     0.13400
N467        N  0.28400240  0.89115523  0.03825713    -0.02900
C468        C  0.28962382  0.91751104  0.99446396    -0.00300
C469        C  0.27107950  0.94216695  0.00297687    -0.23200
C470        C  0.26170968  0.93662235  0.55529557    -0.23400
C471        C  0.27692224  0.91059666  0.57744717    -0.00400
H472        H  0.27482075  0.97017226  0.97737851     0.13400
H473        H  0.25808632  0.96063415  0.57554028     0.13400
O474        O  0.58144849  0.03612182  0.84817701    -0.79500
O475        O  0.63320322  0.11858599  0.72260525    -0.79600
O476        O  0.53522395  0.00082409  0.72730859    -0.79600
O477        O  0.63250168  0.19294650  0.83192775    -0.79500
O478        O  0.56265860  0.04830031  0.65569002    -0.79600
O479        O  0.64305611  0.13734274  0.84958666    -0.79600
O480        O  0.63483829  0.18326302  0.73024745    -0.79500
O481        O  0.50447118  0.98029496  0.82856301    -0.79600
C482        C  0.54300711  0.99189695  0.85172866     1.10100
C483        C  0.65567071  0.16486295  0.71861740     1.10000
C484        C  0.54756700  0.00807997  0.67885288     1.10200
C485        C  0.65884279  0.18129976  0.85018575     1.10000
O486        O  0.56187002  0.13235168  0.89065929    -0.79500
O487        O  0.48432760  0.03517913  0.70017451    -0.79600
O488        O  0.46217019  0.03022454  0.81624582    -0.79600
O489        O  0.53008884  0.13853913  0.72132502    -0.79500
O490        O  0.56734112  0.12710368  0.66739343    -0.79600
O491        O  0.50225746  0.03406573  0.88571525    -0.79600
O492        O  0.52654886  0.14059797  0.82376716    -0.79500
O493        O  0.44271803  0.96464235  0.74774051    -0.79600
Co494      Co  0.57249661  0.08525927  0.86369593     1.51500
Co495      Co  0.56069025  0.07553489  0.71570884     1.51700
Co496      Co  0.50157539  0.02158157  0.77271237     1.51600
Co497      Co  0.57875854  0.15957654  0.77704956     1.51500
O498        O  0.55880288  0.09121997  0.78778192    -1.41500
C499        C  0.53613214  0.14435953  0.87105024     1.10100
C500        C  0.44357543  0.99136316  0.71134690     1.10200
C501        C  0.46293791  0.02229733  0.86427866     1.10100
C502        C  0.54514648  0.14418636  0.67607326     1.10100
N503        N  0.51254418  0.26113555  0.98832548    -0.02900
C504        C  0.50832019  0.29674322  0.97369655    -0.00300
C505        C  0.53557907  0.33504136  0.50691393    -0.23200
C506        C  0.55576081  0.32187677  0.54344009    -0.23400
C507        C  0.54090157  0.27618590  0.53136993    -0.00400
H508        H  0.53564259  0.36620924  0.50863796     0.13400
H509        H  0.57575804  0.34170254  0.57743642     0.13400
N510        N  0.82164471  0.29520694  0.53998718    -0.02900
C511        C  0.81547732  0.27063847  0.99732977    -0.00300
C512        C  0.82184009  0.23586837  0.01173222    -0.23200
C513        C  0.82576174  0.23524554  0.56464814    -0.23400
C514        C  0.82074512  0.26903495  0.58190656    -0.00400
H515        H  0.81438175  0.20718807  0.98821444     0.13400
H516        H  0.82087647  0.20530053  0.58745466     0.13400
O517        O  0.11084966  0.68739708  0.86776219    -0.79500
O518        O  0.03012502  0.61676161  0.66455526    -0.79600
O519        O  0.15664265  0.66875218  0.75300572    -0.79600
O520        O  0.95009772  0.57173459  0.83130686    -0.79500
O521        O  0.10236842  0.68094181  0.73207505    -0.79600
O522        O  0.01362822  0.64202694  0.85594727    -0.79600
O523        O  0.99167935  0.61466743  0.73210606    -0.79500
O524        O  0.15936572  0.66776491  0.85621630    -0.79600
C525        C  0.15306743  0.69852443  0.86885259     1.10100
C526        C  0.99885605  0.61981632  0.68263777     1.10000
C527        C  0.14638455  0.69593285  0.73290837     1.10200
C528        C  0.96758086  0.61039373  0.85519087     1.10000
O529        O  0.99111694  0.54902942  0.89750373    -0.79500
O530        O  0.09516199  0.60283941  0.69333787    -0.79600
O531        O  0.09480429  0.55990742  0.86042385    -0.79600
O532        O  0.92924702  0.51551496  0.74918471    -0.79500
O533        O  0.99720110  0.53267821  0.71938746    -0.79600
O534        O  0.09039364  0.60030496  0.91833245    -0.79600
O535        O  0.98129448  0.51179482  0.82649751    -0.79500
O536        O  0.09558133  0.56017969  0.75690021    -0.79600
Co537      Co  0.05171828  0.61922259  0.87997947     1.51500
Co538      Co  0.04961225  0.60904771  0.73037284     1.51700
Co539      Co  0.12214245  0.61256615  0.80654466     1.51600
Co540      Co  0.98952601  0.56377905  0.78199630     1.51500
O541        O  0.05965671  0.60579230  0.80673819    -1.41500
C542        C  0.97153323  0.50989651  0.87307499     1.10100
C543        C  0.10402674  0.57416774  0.70999214     1.10200
C544        C  0.09983258  0.57197712  0.90619236     1.10100
C545        C  0.94957460  0.50354251  0.72204427     1.10100
N546        N  0.20674403  0.52826377  0.53596283    -0.02900
C547        C  0.20725421  0.52831968  0.58826747    -0.00300
C548        C  0.23601004  0.51594957  0.60806046    -0.23200
C549        C  0.25370300  0.50806097  0.56638887    -0.23400
C550        C  0.23528464  0.51585765  0.52218379    -0.00400
H551        H  0.24311206  0.51263218  0.64838756     0.13400
H552        H  0.27580762  0.49583386  0.56871016     0.13400
N553        N  0.82852483  0.34026537  0.54054930    -0.02900
C554        C  0.82237658  0.35786372  0.58247985    -0.00300
C555        C  0.80094758  0.37947605  0.56686988    -0.23200
C556        C  0.79996791  0.38080469  0.51413899    -0.23400
C557        C  0.82068773  0.35967394  0.99862431    -0.00400
H558        H  0.79595529  0.40095000  0.59019097     0.13400
H559        H  0.79377573  0.40338441  0.99068997     0.13400
N560        N  0.84989083  0.61654543  0.00509050    -0.02900
C561        C  0.85631763  0.61199580  0.55665263    -0.00300
C562        C  0.81847842  0.60287479  0.58512436    -0.23200
C563        C  0.78765980  0.60266660  0.55112410    -0.23400
C564        C  0.80763570  0.61211545  0.00237626    -0.00400
H565        H  0.81464339  0.59854841  0.62674932     0.13400
H566        H  0.75605386  0.59906384  0.56261330     0.13400
N567        N  0.28964920  0.85368331  0.54191426    -0.02900
C568        C  0.29441534  0.83380920  0.58593900    -0.00300
C569        C  0.31789048  0.81456473  0.57429162    -0.23200
C570        C  0.32144138  0.81699357  0.02153032    -0.23400
C571        C  0.30035608  0.83807215  0.00180371    -0.00400
H572        H  0.32256326  0.79190871  0.59991338     0.13400
H573        H  0.32932763  0.79641017  0.00093450     0.13400
O574        O  0.45384434  0.48095450  0.60094298    -0.79500
O575        O  0.40586712  0.48837637  0.74854702    -0.79600
O576        O  0.53335247  0.47835137  0.73752989    -0.79600
O577        O  0.43701693  0.54997237  0.61666275    -0.79500
O578        O  0.45781997  0.44868686  0.75671203    -0.79600
O579        O  0.48344689  0.56371637  0.55019698    -0.79600
O580        O  0.42934028  0.56203930  0.72045089    -0.79500
O581        O  0.49974865  0.46548847  0.63961341    -0.79600
C582        C  0.46568852  0.45344722  0.60830057     1.10100
C583        C  0.39867628  0.52030432  0.74499468     1.10000
C584        C  0.49298442  0.44643610  0.76190084     1.10200
C585        C  0.44430518  0.55438803  0.56725900     1.10000
O586        O  0.54764917  0.62696939  0.62215078    -0.79500
O587        O  0.54025734  0.54132197  0.79422797    -0.79600
O588        O  0.59612875  0.53617217  0.64581742    -0.79600
O589        O  0.53572373  0.62629312  0.73156075    -0.79500
O590        O  0.48705671  0.57428504  0.79339760    -0.79600
O591        O  0.56115742  0.55804513  0.58903920    -0.79600
O592        O  0.49923821  0.64375581  0.64683226    -0.79500
O593        O  0.58700917  0.58186200  0.72428706    -0.79600
Co594      Co  0.49985398  0.55110625  0.61690290     1.51500
Co595      Co  0.47267693  0.51279875  0.76891804     1.51700
Co596      Co  0.54280184  0.52635827  0.68004917     1.51600
Co597      Co  0.48799879  0.58526642  0.67580218     1.51500
O598        O  0.49229437  0.53159603  0.69382572    -1.41500
C599        C  0.53511005  0.65534151  0.61918364     1.10100
C600        C  0.58207519  0.57340397  0.77300003     1.10200
C601        C  0.59478784  0.55274714  0.60081948     1.10100
C602        C  0.51951857  0.61824742  0.77709093     1.10100
N603        N  0.46017059  0.32305785  0.94107276    -0.02900
C604        C  0.41972731  0.30755019  0.46818634    -0.00300
C605        C  0.39256160  0.25777709  0.48090794    -0.23200
C606        C  0.41985656  0.24399114  0.46598340    -0.23400
C607        C  0.46418336  0.28640454  0.94719022    -0.00400
H608        H  0.36174864  0.23646214  0.50741021     0.13400
H609        H  0.41334886  0.21041420  0.48037630     0.13400
N610        N  0.27962733  0.51050619  0.44906163    -0.02900
C611        C  0.26791849  0.49688242  0.89935191    -0.00300
C612        C  0.22171903  0.48235092  0.88771396    -0.23200
C613        C  0.20441531  0.48772204  0.93137624    -0.23400
C614        C  0.24073434  0.50582933  0.46860957    -0.00400
H615        H  0.20304778  0.47024275  0.85100523     0.13400
H616        H  0.16859141  0.47843049  0.93526178     0.13400
N617        N  0.74458003  0.61282117  0.94894077    -0.02900
C618        C  0.74671592  0.63196955  0.90078716    -0.00300
C619        C  0.79338209  0.65847543  0.88023519    -0.23200
C620        C  0.82077752  0.65412011  0.91525349    -0.23400
C621        C  0.79024974  0.62502664  0.95651795    -0.00400
H622        H  0.80594060  0.67792755  0.84285487     0.13400
H623        H  0.85929140  0.67150738  0.91084366     0.13400
N624        N  0.55972091  0.78080423  0.45037976    -0.02900
C625        C  0.56292301  0.77679098  0.89838396    -0.00300
C626        C  0.55616630  0.80675889  0.86932387    -0.23200
C627        C  0.54494467  0.82740496  0.90269466    -0.23400
C628        C  0.54613761  0.81073784  0.95205909    -0.00400
H629        H  0.55320273  0.80831582  0.82768571     0.13400
H630        H  0.53210765  0.84805342  0.89087159     0.13400
C631        C  0.36104196  0.51338978  0.77930353    -0.04900
C632        C  0.37115401  0.55485232  0.80156520    -0.32300
C633        C  0.34223380  0.54965533  0.84203417     0.36900
C634        C  0.30134861  0.50259437  0.85995685    -0.05200
C635        C  0.28966633  0.46113761  0.83638416    -0.32200
C636        C  0.31959638  0.46615015  0.79711462     0.36900
H637        H  0.40299234  0.59155586  0.78922482     0.17200
O638        O  0.35345012  0.59090511  0.86295408    -0.59700
H639        H  0.25768940  0.42467469  0.84918143     0.17200
O640        O  0.30848542  0.42460200  0.77712024    -0.59800
H641        H  0.28550423  0.41684024  0.74830808     0.44200
H642        H  0.37933969  0.60045661  0.88879665     0.44200
C643        C  0.40575766  0.54588873  0.53185972    -0.04900
C644        C  0.37452556  0.50107008  0.50778869    -0.32300
C645        C  0.33340339  0.48951769  0.47989186     0.36900
C646        C  0.32304027  0.52305646  0.47586299    -0.05200
C647        C  0.35522176  0.56854531  0.49878932    -0.32200
C648        C  0.39636216  0.58006045  0.52658945     0.36900
H649        H  0.38086307  0.47412634  0.51237324     0.17200
O650        O  0.30144777  0.44394817  0.45982764    -0.59700
H651        H  0.34794954  0.59479637  0.99559227     0.17200
O652        O  0.42649941  0.62428346  0.54966425    -0.59800
H653        H  0.45346579  0.64667980  0.52452714     0.44200
H654        H  0.32043617  0.44264156  0.43327673     0.44200
C655        C  0.53419310  0.65914109  0.81041670    -0.04900
C656        C  0.50259681  0.64922747  0.85083502    -0.32300
C657        C  0.51231765  0.68689162  0.88042597     0.36900
C658        C  0.55574889  0.73551001  0.87229525    -0.05200
C659        C  0.58778472  0.74557688  0.83243572    -0.32200
C660        C  0.57716491  0.70804568  0.80143130     0.36900
H661        H  0.46894261  0.61226486  0.85837982     0.17200
O662        O  0.47872766  0.67589653  0.91689311    -0.59700
H663        H  0.62050374  0.78303402  0.82437018     0.17200
O664        O  0.60911995  0.71965084  0.76264312    -0.59800
H665        H  0.59824706  0.72924560  0.73208176     0.44200
H666        H  0.45964583  0.68577241  0.90028975     0.44200
C667        C  0.56914561  0.75828935  0.49412341    -0.04900
C668        C  0.57214050  0.72007869  0.48761822    -0.32300
C669        C  0.56746610  0.69007592  0.52957062     0.36900
C670        C  0.55797873  0.69660978  0.57930824    -0.05200
C671        C  0.56595936  0.74067536  0.58753642    -0.32200
C672        C  0.57677642  0.77378370  0.54550554     0.36900
H673        H  0.57809089  0.71227200  0.95074905     0.17200
O674        O  0.56894933  0.65246309  0.52055849    -0.59700
H675        H  0.56469293  0.74977696  0.62632343     0.17200
O676        O  0.59595868  0.82105958  0.55530271    -0.59800
H677        H  0.63150475  0.84127454  0.54738262     0.44200
H678        H  0.60366698  0.66624863  0.52616260     0.44200
C679        C  0.62584412  0.59423279  0.80474578    -0.04900
C680        C  0.66205768  0.59251447  0.78643494    -0.32300
C681        C  0.70057165  0.60366963  0.81803486     0.36900
C682        C  0.70431103  0.61844420  0.86871554    -0.05200
C683        C  0.66849155  0.62126065  0.88677974    -0.32200
C684        C  0.62869216  0.60815706  0.85542937     0.36900
H685        H  0.65906706  0.57972822  0.74828645     0.17200
O686        O  0.73270780  0.59695302  0.80010048    -0.59700
H687        H  0.67120019  0.63379165  0.92480248     0.17200
O688        O  0.59335931  0.60994781  0.87412953    -0.59800
H689        H  0.57211848  0.57961092  0.89664253     0.44200
H690        H  0.75223586  0.62323548  0.77262490     0.44200
C691        C  0.63281186  0.56709388  0.56139865    -0.04900
C692        C  0.67305593  0.61696968  0.55225643    -0.32300
C693        C  0.70984916  0.63168392  0.51611791     0.36900
C694        C  0.70697857  0.59665706  0.48739536    -0.05200
C695        C  0.66657376  0.54663072  0.49617263    -0.32200
C696        C  0.62984690  0.53180451  0.53292109     0.36900
H697        H  0.67618603  0.64472690  0.57355417     0.17200
O698        O  0.74844718  0.68074672  0.50835971    -0.59700
H699        H  0.66351784  0.51914882  0.97446098     0.17200
O700        O  0.59121175  0.48271764  0.54074064    -0.59800
H701        H  0.56481000  0.47673250  0.01766689     0.44200
H702        H  0.77358851  0.68737184  0.53392351     0.44200
C703        C  0.48857181  0.41118528  0.80233500    -0.04900
C704        C  0.44340558  0.36396572  0.80980350    -0.32300
C705        C  0.43493959  0.33358852  0.85350191     0.36900
C706        C  0.47133199  0.35062649  0.89207868    -0.05200
C707        C  0.51730800  0.39673913  0.88355622    -0.32200
C708        C  0.52621550  0.42678499  0.83906084     0.36900
H709        H  0.41391466  0.35113839  0.78237182     0.17200
O710        O  0.38987432  0.28821689  0.85955150    -0.59700
H711        H  0.54559016  0.41041415  0.91267234     0.17200
O712        O  0.57029601  0.47318926  0.83446034    -0.59800
H713        H  0.59182325  0.46951766  0.81496349     0.44200
H714        H  0.39463645  0.26450496  0.84854194     0.44200
C715        C  0.42291033  0.34058857  0.50504951    -0.04900
C716        C  0.43173110  0.33568858  0.55755596    -0.32300
C717        C  0.44275777  0.37047477  0.59252886     0.36900
C718        C  0.44443261  0.41084240  0.57563024    -0.05200
C719        C  0.43331716  0.41449482  0.52364350    -0.32200
C720        C  0.42355317  0.38027953  0.48827486     0.36900
H721        H  0.43260565  0.30603428  0.57107011     0.17200
O722        O  0.45409784  0.36585502  0.64254596    -0.59700
H723        H  0.43537007  0.44578767  0.50950077     0.17200
O724        O  0.41530994  0.38626993  0.43738803    -0.59800
H725        H  0.44773702  0.41480476  0.42326018     0.44200
H726        H  0.42293932  0.34871803  0.66211860     0.44200
C727        C  0.89890410  0.61976694  0.58248695    -0.04900
C728        C  0.92059023  0.65181403  0.62352274    -0.32300
C729        C  0.95427118  0.65338180  0.65629890     0.36900
C730        C  0.96815480  0.62419636  0.64675899    -0.05200
C731        C  0.94836299  0.59399523  0.60429549    -0.32200
C732        C  0.91322871  0.59094823  0.57266275     0.36900
H733        H  0.90955548  0.67403379  0.63160078     0.17200
O734        O  0.97321849  0.68325586  0.69740449    -0.59700
H735        H  0.95778986  0.57017438  0.59761231     0.17200
O736        O  0.88972822  0.55641663  0.53584472    -0.59800
H737        H  0.91535112  0.56650739  0.51017361     0.44200
H738        H  0.94735035  0.66505370  0.72444538     0.44200
C739        C  0.93617234  0.61632846  0.88783506    -0.04900
C740        C  0.95868562  0.65249211  0.92510132    -0.32300
C741        C  0.93092134  0.65471681  0.96177024     0.36900
C742        C  0.87911828  0.61972949  0.96297382    -0.05200
C743        C  0.85638147  0.58588618  0.92342657    -0.32200
C744        C  0.88420989  0.58475810  0.88570612     0.36900
H745        H  0.99838129  0.67869404  0.92692928     0.17200
O746        O  0.95464448  0.69193250  0.49566853    -0.59700
H747        H  0.81668076  0.55958889  0.92228396     0.17200
O748        O  0.85997178  0.55254722  0.84696410    -0.59800
H749        H  0.86096481  0.57235945  0.81703806     0.44200
H750        H  0.97800145  0.68905723  0.51504380     0.44200
C751        C  0.91899222  0.45666006  0.69458867    -0.04900
C752        C  0.93858174  0.45034418  0.65246449    -0.32300
C753        C  0.90785044  0.41191739  0.61910953     0.36900
C754        C  0.85651186  0.37925062  0.62724575    -0.05200
C755        C  0.83816801  0.38147399  0.67340705    -0.32200
C756        C  0.86879160  0.41967257  0.70685372     0.36900
H757        H  0.97722613  0.47740012  0.64291268     0.17200
O758        O  0.92784952  0.41065804  0.57540122    -0.59700
H759        H  0.79893917  0.35658579  0.68075013     0.17200
O760        O  0.84833471  0.42230692  0.74940006    -0.59800
H761        H  0.85141038  0.40362817  0.77744704     0.44200
H762        H  0.93707764  0.38926198  0.58529941     0.44200
C763        C  0.85263489  0.38009920  0.95196303    -0.04900
C764        C  0.84324860  0.40281624  0.91264386    -0.32300
C765        C  0.88219537  0.44503716  0.88590149     0.36900
C766        C  0.93044297  0.46225821  0.89543869    -0.05200
C767        C  0.93846216  0.43323444  0.92547047    -0.32200
C768        C  0.89968999  0.39170551  0.95354323     0.36900
H769        H  0.80675649  0.39227571  0.90768032     0.17200
O770        O  0.87312747  0.47123954  0.85348929    -0.59700
H771        H  0.97501756  0.44397934  0.92889235     0.17200
O772        O  0.90958655  0.36592583  0.48543482    -0.59800
H773        H  0.91343170  0.34679064  0.46224318     0.44200
H774        H  0.86349658  0.48564926  0.87665013     0.44200
C775        C  0.12836841  0.56128030  0.67703831    -0.04900
C776        C  0.12543573  0.51960122  0.69040690    -0.32300
C777        C  0.15075894  0.50850113  0.66184146     0.36900
C778        C  0.18062562  0.53980923  0.61971066    -0.05200
C779        C  0.18395921  0.58172650  0.60666102    -0.32200
C780        C  0.15788962  0.59233280  0.63446633     0.36900
H781        H  0.10314943  0.49529483  0.72299526     0.17200
O782        O  0.14546755  0.46653089  0.67505302    -0.59700
H783        H  0.20720131  0.60667601  0.57488535     0.17200
O784        O  0.16247602  0.63379940  0.62024756    -0.59800
H785        H  0.19137554  0.66061977  0.63943018     0.44200
H786        H  0.11951599  0.44141442  0.65182433     0.44200
C787        C  0.12626997  0.56112016  0.94193329    -0.04900
C788        C  0.17702744  0.58797720  0.93447978    -0.32300
C789        C  0.20372837  0.57734022  0.96500162     0.36900
C790        C  0.17951631  0.53844963  0.00270620    -0.05200
C791        C  0.12872239  0.51159458  0.01024611    -0.32200
C792        C  0.10204124  0.52281178  0.98022802     0.36900
H793        H  0.19606269  0.61750726  0.90489035     0.17200
O794        O  0.25349383  0.60527060  0.45801461    -0.59700
H795        H  0.10985948  0.48197976  0.03971768     0.17200
O796        O  0.05264766  0.49656858  0.98865822    -0.59800
H797        H  0.03778519  0.46170731  0.98373563     0.44200
H798        H  0.26822505  0.63101485  0.48368275     0.44200
C799        C  0.18530720  0.74147839  0.70311314    -0.04900
C800        C  0.17250908  0.75590913  0.65833192    -0.32300
C801        C  0.20805665  0.78911918  0.62112601     0.36900
C802        C  0.25776435  0.80919144  0.62882385    -0.05200
C803        C  0.27097819  0.79831487  0.67606274    -0.32200
C804        C  0.23537777  0.76475993  0.71284523     0.36900
H805        H  0.13422458  0.73814938  0.64976806     0.17200
O806        O  0.19269413  0.79709877  0.57525122    -0.59700
H807        H  0.30895481  0.81396675  0.68332423     0.17200
O808        O  0.24975635  0.75353405  0.75737065    -0.59800
H809        H  0.25736874  0.73178302  0.74717742     0.44200
H810        H  0.18146751  0.81627267  0.58355830     0.44200
C811        C  0.27016527  0.81960713  0.95366674    -0.04900
C812        C  0.22329551  0.80747490  0.95375964    -0.32300
C813        C  0.18568321  0.77108196  0.92276866     0.36900
C814        C  0.19447089  0.74576303  0.89072117    -0.05200
C815        C  0.24303824  0.76321101  0.88466543    -0.32200
C816        C  0.28106217  0.80110427  0.91447226     0.36900
H817        H  0.21364998  0.82214527  0.48150286     0.17200
O818        O  0.13954583  0.75776357  0.92781265    -0.59700
H819        H  0.25123015  0.74574361  0.85887759     0.17200
O820        O  0.32787744  0.81666222  0.90803541    -0.59800
H821        H  0.34277728  0.84390059  0.88121108     0.44200
H822        H  0.12506590  0.73479921  0.95873662     0.44200
C823        C  0.70276072  0.19771824  0.69091787    -0.04900
C824        C  0.74246958  0.19732878  0.70157889    -0.32300
C825        C  0.78493158  0.22607812  0.67029132     0.36900
C826        C  0.78629888  0.25275945  0.62587863    -0.05200
C827        C  0.74663780  0.25348266  0.61728975    -0.32200
C828        C  0.70656646  0.22840832  0.65017592     0.36900
H829        H  0.74038116  0.17456946  0.73364790     0.17200
O830        O  0.82337722  0.22535811  0.68153279    -0.59700
H831        H  0.74399489  0.27045778  0.58272967     0.17200
O832        O  0.66948061  0.23159044  0.63997756    -0.59800
H833        H  0.65765373  0.21937440  0.60493177     0.44200
H834        H  0.84488042  0.25278494  0.70481036     0.44200
C835        C  0.70412073  0.21629923  0.88000470    -0.04900
C836        C  0.74756049  0.22312262  0.86997309    -0.32300
C837        C  0.78681855  0.24637996  0.90524303     0.39900
C838        C  0.78239991  0.26145874  0.95261419    -0.05200
C839        C  0.73983934  0.25698861  0.96082224    -0.32200
C840        C  0.70141104  0.23538091  0.92485138     0.36900
H841        H  0.75022352  0.20848501  0.83572899     0.17200
O842        O  0.82794253  0.25091423  0.89473563    -0.59700
H843        H  0.73436931  0.26693053  0.99686668     0.17200
O844        O  0.65945866  0.22912157  0.93620586    -0.59800
H845        H  0.63982610  0.19870949  0.95892705     0.44200
H846        H  0.85069402  0.28382547  0.87689037     0.44200
C847        C  0.54176034  0.17515111  0.63677490    -0.04900
C848        C  0.52354063  0.19937852  0.65194480    -0.32300
C849        C  0.52410412  0.23272632  0.61815637     0.36900
C850        C  0.54383359  0.24337108  0.56810036    -0.05200
C851        C  0.56271812  0.21980740  0.55284987    -0.32200
C852        C  0.55987196  0.18442207  0.58589022     0.36900
H853        H  0.50888470  0.19276106  0.69046999     0.17200
O854        O  0.50352875  0.25342917  0.63386509    -0.59700
H855        H  0.57822367  0.22760328  0.51457527     0.17200
O856        O  0.57468860  0.15910164  0.56786434    -0.59800
H857        H  0.54540292  0.13069920  0.55054548     0.44200
H858        H  0.52876695  0.28056958  0.65584570     0.44200
C859        C  0.50727154  0.22703506  0.95406121    -0.04900
C860        C  0.53397338  0.24616111  0.90782817    -0.32300
C861        C  0.54246230  0.21870647  0.88057105     0.36900
C862        C  0.52459166  0.17134076  0.89970720    -0.05200
C863        C  0.49444320  0.15034968  0.94370437    -0.32200
C864        C  0.48449972  0.17758234  0.97008510     0.36900
H865        H  0.55126288  0.28391380  0.89476139     0.17200
O866        O  0.57014111  0.23934352  0.83620352    -0.59700
H867        H  0.47888296  0.11320096  0.95757689     0.17200
O868        O  0.45558620  0.15701232  0.01349591    -0.59800
H869        H  0.42156921  0.14003231  0.00079389     0.44200
H870        H  0.60467111  0.25749353  0.84769183     0.44200
C871        C  0.31533720  0.93580479  0.61823825    -0.04900
C872        C  0.31003757  0.91240071  0.66630898    -0.32300
C873        C  0.35111447  0.93007697  0.69790169     0.36900
C874        C  0.39794657  0.97350405  0.68249506    -0.05200
C875        C  0.40111921  0.00105496  0.63869621    -0.32200
C876        C  0.36040394  0.98284237  0.60675995     0.36900
H877        H  0.27432685  0.87976038  0.67886521     0.17200
O878        O  0.34515177  0.90393661  0.74288208    -0.59700
H879        H  0.43575220  0.03621991  0.62785273     0.17200
O880        O  0.36458800  0.01130229  0.56455251    -0.59800
H881        H  0.39479584  0.02327853  0.54563766     0.44200
H882        H  0.33271253  0.91402536  0.76840316     0.44200
C883        C  0.41741174  0.99482770  0.89557121    -0.04900
C884        C  0.41870448  0.97846146  0.94573502    -0.32300
C885        C  0.37748985  0.95222098  0.97767878     0.36900
C886        C  0.33238288  0.93998826  0.95901683    -0.05200
C887        C  0.33063322  0.95542691  0.90821835    -0.32200
C888        C  0.37265379  0.98267760  0.87654170     0.36900
H889        H  0.45225552  0.98632102  0.96104223     0.17200
O890        O  0.38187533  0.93870073  0.02717235    -0.59700
H891        H  0.29675751  0.94709000  0.89339424     0.17200
O892        O  0.36942275  0.99719347  0.82730077    -0.59800
H893        H  0.37821381  0.03019072  0.83023280     0.44200
H894        H  0.41283763  0.96765210  0.04167882     0.44200
C895        C  0.52409263  0.89438329  0.58726198    -0.04900
C896        C  0.56591990  0.94390948  0.57922964    -0.32300
C897        C  0.57470242  0.98105637  0.60934985     0.36900
C898        C  0.54235578  0.96921257  0.64984285    -0.05200
C899        C  0.50099619  0.91981691  0.65854694    -0.32200
C900        C  0.49118758  0.88291942  0.62726063     0.36900
H901        H  0.59262318  0.95407594  0.55005244     0.17200
O902        O  0.61520994  0.02891076  0.59886466    -0.59700
H903        H  0.47478033  0.91000279  0.68834035     0.17200
O904        O  0.44845569  0.83599197  0.63554618    -0.59800
H905        H  0.42449257  0.83335288  0.61090661     0.44200
H906        H  0.64185413  0.03349532  0.62036615     0.44200
C907        C  0.54094705  0.95639757  0.88932687    -0.04900
C908        C  0.58443684  0.96435813  0.90591394    -0.32300
C909        C  0.58331203  0.93369060  0.94505991     0.36900
C910        C  0.53853031  0.89514968  0.96896792    -0.05200
C911        C  0.49535897  0.88744902  0.95282359    -0.32200
C912        C  0.49613147  0.91728435  0.91340232     0.36900
H913        H  0.61940420  0.99458304  0.88871654     0.17200
O914        O  0.62606772  0.94220783  0.96054185    -0.59700
H915        H  0.46069344  0.85777016  0.97101263     0.17200
O916        O  0.45311777  0.90945738  0.90087488    -0.59800
H917        H  0.43760647  0.88446554  0.87432923     0.44200
H918        H  0.63106900  0.92463926  0.93629835     0.44200
loop_ 
_geom_bond_atom_site_label_1 
_geom_bond_atom_site_label_2 
_geom_bond_distance 
_geom_bond_site_symmetry_2 
_ccdc_geom_bond_type 
N1            C5   1.368       .  A
N1          C461   1.365       .  A
N1          C451   1.443       .  S
C2          N460   1.365       .  A
C2            C3   1.387       .  A
C2          C436   1.508       .  S
C3            C4   1.376       .  A
C3            H6   1.081       .  S
C4          C464   1.383   1_554  A
C4            H7   1.082       .  S
C5          C463   1.383       .  A
C5          C169   1.505       .  S
N8            C9   1.353       .  A
N8          C471   1.362       .  A
N8          N567   1.426       .  S
C9           C10   1.382       .  A
C9          C427   1.493       .  S
C10         C470   1.381       .  A
C10          H13   1.082       .  S
C11          C12   1.389       .  A
C11         C469   1.381       .  A
C11          H14   1.083       .  S
C12         N467   1.362       .  A
C12         C412   1.493       .  S
O15          C23   1.262   1_545  A
O15         Co35   1.977       .  S
O16          C24   1.275       .  A
O16         Co36   1.983       .  S
O17          C25   1.301       .  A
O17         Co37   2.124       .  S
O18          C26   1.276       .  A
O18         Co38   2.045       .  S
O19          C25   1.262       .  A
O19         Co36   1.894       .  S
O20          C26   1.261       .  A
O20         Co35   1.972       .  S
O21          C24   1.277       .  A
O21         Co38   2.000       .  S
O22          C23   1.272       .  A
O22         Co37   2.018   1_565  S
C23         C448   1.490       .  S
C24         C364   1.469       .  S
C25         C439   1.492   1_545  S
C26         C376   1.484       .  S
O27          C40   1.278       .  A
O27         Co35   2.048       .  S
O28          C41   1.304   1_545  A
O28         Co36   2.130       .  S
O29          C42   1.263       .  A
O29         Co37   1.973       .  S
O30          C43   1.256       .  A
O30         Co38   1.976       .  S
O31          C43   1.260       .  A
O31         Co36   2.014       .  S
O32          C42   1.273       .  A
O32         Co35   2.006       .  S
O33          C40   1.253       .  A
O33         Co38   1.940       .  S
O34          C41   1.270       .  A
O34         Co37   1.884   1_565  S
Co35         O39   2.038       .  S
Co36         O39   1.993       .  S
Co37         O39   2.009       .  S
Co38         O39   2.017       .  S
C40         C403   1.469       .  S
C41         C415   1.486       .  S
C42         C424   1.481   1_545  S
C43         C388   1.490       .  S
N44          C45   1.361       .  A
N44         C507   1.359       .  A
N44         C400   1.439       .  S
C45         C505   1.388       .  A
C45         C148   1.491       .  S
C46          C47   1.376       .  A
C46         C504   1.388   1_554  A
C46          H49   1.083       .  S
C47          C48   1.381       .  A
C47          H50   1.082       .  S
C48         N503   1.359   1_554  A
C48         C391   1.489       .  S
N51          C55   1.362       .  A
N51         C511   1.367   1_554  A
N51          N94   1.427       .  S
C52         N510   1.367       .  A
C52          C53   1.382       .  A
C52         C379   1.504       .  S
C53         C513   1.375       .  A
C53          H56   1.082       .  S
C54          C55   1.387       .  A
C54         C512   1.375       .  A
C54          H57   1.082       .  S
C55         C367   1.493       .  S
O58          C66   1.262       .  A
O58         Co78   1.958       .  S
O59          C67   1.262   1_455  A
O59         Co79   1.879       .  S
O60          C68   1.277       .  A
O60         Co80   2.013       .  S
O61          C69   1.270       .  A
O61         Co81   2.054       .  S
O62          C68   1.272       .  A
O62         Co79   1.978       .  S
O63          C69   1.258   1_455  A
O63         Co78   1.985       .  S
O64          C67   1.296       .  A
O64         Co81   2.088       .  S
O65          C66   1.276       .  A
O65         Co80   2.027       .  S
C66         C355   1.485       .  S
C67         C271   1.462       .  S
C68         C340   1.481       .  S
C69         C280   1.521       .  S
O70          C83   1.278       .  A
O70         Co78   2.033   1_655  S
O71          C84   1.260       .  A
O71         Co79   2.006       .  S
O72          C85   1.253       .  A
O72         Co80   1.955       .  S
O73          C86   1.265       .  A
O73         Co81   1.899       .  S
O74          C86   1.298       .  A
O74         Co79   2.117   1_655  S
O75          C85   1.271       .  A
O75         Co78   2.035       .  S
O76          C83   1.253       .  A
O76         Co81   1.948       .  S
O77          C84   1.257       .  A
O77         Co80   1.983       .  S
Co78         O82   2.051       .  S
Co79         O82   2.008       .  S
Co80         O82   2.031       .  S
Co81         O82   2.016   1_655  S
C83         C307   1.455       .  S
C84         C316   1.487       .  S
C85         C328   1.473       .  S
C86         C292   1.491       .  S
N87          C91   1.366       .  A
N87          C88   1.357       .  A
N87         C790   1.443       .  S
C88          C89   1.382       .  A
C88         C319   1.492       .  S
C89          C90   1.383       .  A
C89          H92   1.082       .  S
C90          C91   1.386       .  A
C90          H93   1.081       .  S
C91         C155   1.499   1_554  S
N94          C95   1.364       .  A
N94         C557   1.352   1_554  A
C95          C96   1.382       .  A
C95         C295   1.490       .  S
C96          C97   1.366       .  A
C96          H99   1.083       .  S
C97         C557   1.388   1_554  A
C97         H559   1.082   1_554  S
C98         N553   1.352       .  A
C98         C556   1.388       .  A
C98         C304   1.488       .  S
H100        C556   1.082       .  S
N101        C105   1.376       .  A
N101        C561   1.364       .  A
N101        C283   1.470       .  S
C102        N560   1.364       .  A
C102        C103   1.377       .  A
C102        C268   1.471       .  S
C103        C104   1.359       .  A
C103        H106   1.083       .  S
C104        C564   1.384       .  A
C104        H107   1.075       .  S
C105        C563   1.384       .  A
C105        C162   1.483       .  S
N108        C109   1.356       .  A
N108        C571   1.363       .  A
N108        N467   1.426       .  S
C109        C110   1.384       .  A
C109        C343   1.491       .  S
C110        C570   1.371       .  A
C110        H113   1.082       .  S
C111        C112   1.387       .  A
C111        C569   1.371       .  A
C111        H114   1.081       .  S
C112        N567   1.363       .  A
C112        C352   1.497       .  S
O115        C123   1.254       .  A
O115       Co135   1.973       .  S
O116        C124   1.274       .  A
O116       Co136   1.976       .  S
O117        C125   1.281       .  A
O117       Co137   2.039       .  S
O118        C126   1.297       .  A
O118       Co138   2.082       .  S
O119        C125   1.272       .  A
O119       Co136   1.989       .  S
O120        C126   1.275       .  A
O120       Co135   1.913       .  S
O121        C124   1.287       .  A
O121       Co138   2.038       .  S
O122        C123   1.262       .  A
O122       Co137   2.008       .  S
C123        C259   1.483       .  S
C124        C172   1.491       .  S
C125        C244   1.497       .  S
C126        C184   1.476       .  S
O127        C140   1.297       .  A
O127       Co135   2.074       .  S
O128        C141   1.275       .  A
O128       Co136   2.001       .  S
O129        C142   1.282       .  A
O129       Co137   1.905       .  S
O130        C143   1.266       .  A
O130       Co138   2.005       .  S
O131        C143   1.263       .  A
O131       Co136   2.005       .  S
O132        C142   1.313       .  A
O132       Co135   2.135       .  S
O133        C140   1.278       .  A
O133       Co138   1.919       .  S
O134        C141   1.273       .  A
O134       Co137   1.964       .  S
Co135       O139   2.040       .  S
Co136       O139   2.018       .  S
Co137       O139   1.918       .  S
Co138       O139   1.984       .  S
C140        C211   1.489       .  S
C141        C220   1.460       .  S
C142        C232   1.501       .  S
C143        C196   1.496       .  S
N144        C148   1.361       .  A
N144        C604   1.357       .  A
N144        C247   1.451       .  S
C145        N603   1.357       .  A
C145        C146   1.382       .  A
C145        C256   1.486   1_556  S
C146        C147   1.373       .  A
C146        H149   1.083   1_556  S
C147        C607   1.388       .  A
C147        H150   1.083       .  S
C148        C606   1.388       .  A
N151        C155   1.368       .  A
N151        C611   1.361       .  A
N151        C187   1.446       .  S
C152        N610   1.361       .  A
C152        C153   1.378       .  A
C152        C175   1.485       .  S
C153        C154   1.375       .  A
C153        H156   1.082       .  S
C154        C614   1.387       .  A
C154        H157   1.081       .  S
C155        C613   1.387       .  A
N158        C162   1.373       .  A
N158        C159   1.361       .  A
N158        C694   1.459       .  S
C159        C160   1.381       .  A
C159        C223   1.477       .  S
C160        C161   1.361       .  A
C160        H163   1.082       .  S
C161        C162   1.382       .  A
C161        H164   1.080       .  S
N165        C628   1.384       .  A
N165        C625   1.380       .  A
N165        C208   1.479       .  S
C166        N624   1.380       .  A
C166        C167   1.377       .  A
C166        C199   1.494       .  S
C167        C168   1.363       .  A
C167        H170   1.083       .  S
C168        C169   1.383       .  A
C168        H171   1.079       .  S
C169        N624   1.384       .  A
C172        C173   1.408       .  A
C172        C177   1.413       .  A
C173        C174   1.403       .  A
C173        H178   1.083       .  S
C174        C175   1.405       .  A
C174        O179   1.371       .  S
C175        C176   1.404       .  A
C176        C177   1.406       .  A
C176        H180   1.084       .  S
C177        O181   1.371       .  S
O179        H183   0.991       .  S
O181        H182   0.992       .  S
C184        C185   1.400       .  A
C184        C189   1.409       .  A
C185        C186   1.405   1_554  A
C185        H190   1.084       .  S
C186        C187   1.412       .  A
C186        O191   1.372       .  S
C187        C188   1.404       .  A
C188        C189   1.405   1_556  A
C188        H651   1.083       .  S
C189        O193   1.371       .  S
O191        H195   0.992       .  S
H192        C647   1.083       .  S
O193        H194   0.992       .  S
C196        C197   1.411       .  A
C196        C201   1.411       .  A
C197        C198   1.402       .  A
C197        H202   1.083       .  S
C198        C199   1.409       .  A
C198        O203   1.372       .  S
C199        C200   1.408       .  A
C200        C201   1.410       .  A
C200        H204   1.083       .  S
C201        O205   1.371       .  S
O203        H207   0.992       .  S
O205        H206   0.992       .  S
C208        C209   1.412       .  A
C208        C213   1.422   1_556  A
C209        C210   1.399   1_556  A
C209        H673   1.070       .  S
C210        C211   1.408       .  A
C210        O215   1.371       .  S
C211        C212   1.402       .  A
C212        C213   1.410       .  A
C212        H216   1.083       .  S
C213        O217   1.371       .  S
H214        C668   1.070       .  S
O215        H219   0.991       .  S
O217        H218   0.991       .  S
C220        C221   1.395       .  A
C220        C225   1.408       .  A
C221        C222   1.389       .  A
C221        H226   1.084       .  S
C222        C223   1.413       .  A
C222        O227   1.373       .  S
C223        C224   1.404       .  A
C224        C225   1.401       .  A
C224        H228   1.080       .  S
C225        O229   1.372       .  S
O227        H231   0.993       .  S
O229        H230   0.992       .  S
C232        C233   1.405       .  A
C232        C237   1.415       .  A
C233        C234   1.410       .  A
C233        H238   1.083       .  S
C234        C235   1.412   1_554  A
C234        O239   1.371       .  S
C235        N617   1.459       .  S
C235        C236   1.408       .  A
C236        C237   1.418   1_556  A
C236        H699   1.083       .  S
C237        O241   1.372       .  S
O239        H243   0.991       .  S
H240        C695   1.083       .  S
O241        H701   0.992       .  S
H242        O700   0.992       .  S
C244        C245   1.405       .  A
C244        C249   1.416       .  A
C245        C246   1.405       .  A
C245        H250   1.084       .  S
C246        C247   1.415       .  A
C246        O251   1.371       .  S
C247        C248   1.403       .  A
C248        C249   1.412       .  A
C248        H252   1.083       .  S
C249        O253   1.371       .  S
O251        H255   0.992       .  S
O253        H254   0.991       .  S
C256        C257   1.409       .  A
C256        C261   1.404   1_554  A
C257        C258   1.400       .  A
C257        H262   1.084       .  S
C258        C259   1.407       .  A
C258        O263   1.372       .  S
C259        C260   1.410       .  A
C260        C261   1.406   1_554  A
C260        H264   1.083       .  S
C261        O265   1.372       .  S
O263        H267   0.993       .  S
O265        H266   0.992       .  S
C268        C269   1.409       .  A
C268        C273   1.402       .  A
C269        C270   1.396       .  A
C269        H274   1.084       .  S
C270        C271   1.400       .  A
C270        O275   1.372       .  S
C271        C272   1.406       .  A
C272        C273   1.397       .  A
C272        H276   1.084       .  S
C273        O277   1.373       .  S
O275        H279   0.992       .  S
O277        H278   0.992       .  S
C280        C281   1.413       .  A
C280        C285   1.416       .  A
C281        C282   1.416       .  A
C281        H286   1.083       .  S
C282        C283   1.414       .  A
C282        O746   1.373       .  S
C283        C284   1.412       .  A
C284        C285   1.418       .  A
C284        H288   1.083       .  S
C285        O289   1.370       .  S
O287        C741   1.373       .  S
O287        H291   0.992   1_556  S
O289        H290   0.992       .  S
C292        C293   1.404       .  A
C292        C297   1.414       .  A
C293        C294   1.405       .  A
C293        H298   1.084       .  S
C294        C295   1.413       .  A
C294        O299   1.367       .  S
C295        C296   1.404       .  A
C296        C297   1.402       .  A
C296        H300   1.084       .  S
C297        O301   1.371       .  S
O299        H303   0.992       .  S
O301        H302   0.991       .  S
C304        C305   1.401       .  A
C304        C309   1.419       .  A
C305        C306   1.392       .  A
C305        H310   1.083       .  S
C306        C307   1.403       .  A
C306        O311   1.369       .  S
C307        C308   1.390       .  A
C308        C309   1.397       .  A
C308        H312   1.080       .  S
C309        O772   1.368       .  S
O311        H315   0.990       .  S
O313        C768   1.368       .  S
O313        H314   0.992       .  S
C316        C317   1.406       .  A
C316        C321   1.413       .  A
C317        C318   1.403       .  A
C317        H322   1.083       .  S
C318        C319   1.410       .  A
C318        O323   1.371       .  S
C319        C320   1.405       .  A
C320        C321   1.402       .  A
C320        H324   1.083       .  S
C321        O325   1.372       .  S
O323        H327   0.993       .  S
O325        H326   0.991       .  S
C328        C329   1.405       .  A
C328        C333   1.404       .  A
C329        C330   1.399       .  A
C329        H334   1.084       .  S
C330        C331   1.404       .  A
C330        O794   1.371       .  S
C331        N546   1.443       .  S
C331        C332   1.407       .  A
C332        C333   1.405       .  A
C332        H336   1.083       .  S
C333        O337   1.372       .  S
O335        C789   1.371       .  S
O335        H339   0.992       .  S
O337        H338   0.992       .  S
C340        C341   1.402       .  A
C340        C345   1.410       .  A
C341        C342   1.402       .  A
C341        H346   1.084       .  S
C342        C343   1.415       .  A
C342        O347   1.369       .  S
C343        C344   1.405       .  A
C344        C345   1.398       .  A
C344        H348   1.084       .  S
C345        O349   1.371       .  S
O347        H351   0.992       .  S
O349        H350   0.992       .  S
C352        C353   1.405       .  A
C352        C357   1.413       .  A
C353        C354   1.396       .  A
C353        H817   1.078       .  S
C354        C355   1.412       .  A
C354        O359   1.373       .  S
C355        C356   1.405       .  A
C356        C357   1.402       .  A
C356        H360   1.082       .  S
C357        O361   1.371       .  S
H358        C812   1.078       .  S
O359        H363   0.992       .  S
O361        H362   0.991       .  S
C364        C365   1.404       .  A
C364        C369   1.402       .  A
C365        C366   1.410       .  A
C365        H370   1.083       .  S
C366        C367   1.416       .  A
C366        O371   1.371       .  S
C367        C368   1.402       .  A
C368        C369   1.382       .  A
C368        H372   1.075       .  S
C369        O373   1.374       .  S
O371        H375   0.992       .  S
O373        H374   0.990       .  S
C376        C377   1.405       .  A
C376        C381   1.407       .  A
C377        C378   1.408       .  A
C377        H382   1.084       .  S
C378        C379   1.414       .  A
C378        O383   1.371       .  S
C379        C380   1.409       .  A
C380        C381   1.403       .  A
C380        H384   1.078       .  S
C381        O385   1.373       .  S
O383        H387   0.992       .  S
O385        H386   0.992       .  S
C388        C389   1.406       .  A
C388        C393   1.413       .  A
C389        C390   1.398       .  A
C389        H394   1.083       .  S
C390        C391   1.408       .  A
C390        O395   1.372       .  S
C391        C392   1.405       .  A
C392        C393   1.406       .  A
C392        H396   1.083       .  S
C393        O397   1.371       .  S
O395        H399   0.993       .  S
O397        H398   0.992       .  S
C400        C401   1.399       .  A
C400        C405   1.411       .  A
C401        C402   1.392       .  A
C401        H406   1.083       .  S
C402        C403   1.409       .  A
C402        O407   1.373       .  S
C403        C404   1.402       .  A
C404        C405   1.407       .  A
C404        H408   1.084       .  S
C405        O409   1.370       .  S
O407        H411   0.991       .  S
O409        H410   0.991       .  S
C412        C413   1.398       .  A
C412        C417   1.415       .  A
C413        C414   1.405       .  A
C413        H418   1.080       .  S
C414        C415   1.416       .  A
C414        O419   1.372       .  S
C415        C416   1.401   1_565  A
C416        C417   1.399   1_545  A
C416        H420   1.084       .  S
C417        O421   1.377   1_565  S
O419        H423   0.991       .  S
O421        H422   0.992       .  S
C424        C425   1.398       .  A
C424        C429   1.412       .  A
C425        C426   1.392       .  A
C425        H430   1.084       .  S
C426        C427   1.419       .  A
C426        O431   1.376       .  S
C427        C428   1.406       .  A
C428        C429   1.405       .  A
C428        H432   1.083       .  S
C429        O433   1.371       .  S
O431        H435   0.992       .  S
O433        H434   0.992   1_565  S
C436        C437   1.409       .  A
C436        C441   1.418       .  A
C437        C438   1.407       .  A
C437        H442   1.081       .  S
C438        C439   1.411       .  A
C438        O443   1.372   1_565  S
C439        C440   1.404       .  A
C440        C441   1.406       .  A
C440        H444   1.084       .  S
C441        O445   1.371       .  S
O443        H447   0.992       .  S
O445        H446   0.992       .  S
C448        C449   1.411       .  A
C448        C453   1.413       .  A
C449        C450   1.408       .  A
C449        H454   1.083       .  S
C450        C451   1.406       .  A
C450        O455   1.371       .  S
C451        C452   1.402       .  A
C452        C453   1.398       .  A
C452        H456   1.083       .  S
C453        O457   1.372       .  S
O455        H459   0.991       .  S
O457        H458   0.991       .  S
N460        C464   1.368   1_554  A
N460        C910   1.443   1_554  S
C461        C462   1.387       .  A
C461        C895   1.508       .  S
C462        C463   1.376       .  A
C462        H465   1.081       .  S
C463        H466   1.082       .  S
C464        C628   1.505       .  S
N467        C468   1.353   1_554  A
C468        C469   1.382   1_556  A
C468        C886   1.493       .  S
C469        H472   1.082   1_554  S
C470        C471   1.389       .  A
C470        H473   1.083       .  S
C471        C871   1.493       .  S
O474        C482   1.262   1_545  A
O474       Co494   1.977       .  S
O475        C483   1.275       .  A
O475       Co495   1.983       .  S
O476        C484   1.301       .  A
O476       Co496   2.124       .  S
O477        C485   1.275       .  A
O477       Co497   2.045       .  S
O478        C484   1.262       .  A
O478       Co495   1.894       .  S
O479        C485   1.261       .  A
O479       Co494   1.972       .  S
O480        C483   1.277       .  A
O480       Co497   2.000       .  S
O481        C482   1.272       .  A
O481       Co496   2.018   1_565  S
C482        C907   1.490       .  S
C483        C823   1.469       .  S
C484        C898   1.492   1_545  S
C485        C835   1.484       .  S
O486        C499   1.278       .  A
O486       Co494   2.048       .  S
O487        C500   1.304   1_545  A
O487       Co495   2.130       .  S
O488        C501   1.263       .  A
O488       Co496   1.973       .  S
O489        C502   1.256       .  A
O489       Co497   1.976       .  S
O490        C502   1.261       .  A
O490       Co495   2.014       .  S
O491        C501   1.273       .  A
O491       Co494   2.006       .  S
O492        C499   1.253       .  A
O492       Co497   1.940       .  S
O493        C500   1.270       .  A
O493       Co496   1.884   1_565  S
Co494       O498   2.038       .  S
Co495       O498   1.993       .  S
Co496       O498   2.009       .  S
Co497       O498   2.017       .  S
C499        C862   1.469       .  S
C500        C874   1.486       .  S
C501        C883   1.481   1_545  S
C502        C847   1.490       .  S
N503        C504   1.361       .  A
N503        C859   1.439       .  S
C504        C607   1.491       .  S
C505        C506   1.376       .  A
C505        H508   1.083       .  S
C506        C507   1.381       .  A
C506        H509   1.082       .  S
C507        C850   1.489       .  S
N510        C514   1.362       .  A
N510        N553   1.427       .  S
C511        C512   1.382   1_556  A
C511        C838   1.504       .  S
C512        H515   1.082   1_554  S
C513        C514   1.387       .  A
C513        H516   1.082       .  S
C514        C826   1.493       .  S
O517        C525   1.262       .  A
O517       Co537   1.958       .  S
O518        C526   1.262   1_455  A
O518       Co538   1.879       .  S
O519        C527   1.277       .  A
O519       Co539   2.013       .  S
O520        C528   1.270       .  A
O520       Co540   2.054       .  S
O521        C527   1.272       .  A
O521       Co538   1.978       .  S
O522        C528   1.258   1_455  A
O522       Co537   1.985       .  S
O523        C526   1.296       .  A
O523       Co540   2.088       .  S
O524        C525   1.276       .  A
O524       Co539   2.027       .  S
C525        C814   1.485       .  S
C526        C730   1.462       .  S
C527        C799   1.481       .  S
C528        C739   1.521       .  S
O529        C542   1.278       .  A
O529       Co537   2.033   1_655  S
O530        C543   1.260       .  A
O530       Co538   2.006       .  S
O531        C544   1.253       .  A
O531       Co539   1.955       .  S
O532        C545   1.265       .  A
O532       Co540   1.899       .  S
O533        C545   1.298       .  A
O533       Co538   2.117   1_655  S
O534        C544   1.271       .  A
O534       Co537   2.035       .  S
O535        C542   1.253       .  A
O535       Co540   1.948       .  S
O536        C543   1.257       .  A
O536       Co539   1.983       .  S
Co537       O541   2.051       .  S
Co538       O541   2.008       .  S
Co539       O541   2.031       .  S
Co540       O541   2.016   1_655  S
C542        C766   1.455       .  S
C543        C775   1.487       .  S
C544        C787   1.473       .  S
C545        C751   1.491       .  S
N546        C550   1.366       .  A
N546        C547   1.357       .  A
C547        C548   1.382       .  A
C547        C778   1.492       .  S
C548        C549   1.383       .  A
C548        H551   1.082       .  S
C549        C550   1.386       .  A
C549        H552   1.081       .  S
C550        C614   1.499       .  S
N553        C554   1.364       .  A
C554        C555   1.382       .  A
C554        C754   1.490       .  S
C555        C556   1.366       .  A
C555        H558   1.083       .  S
C557        C763   1.487       .  S
N560        C564   1.376       .  A
N560        C742   1.470   1_554  S
C561        C562   1.377       .  A
C561        C727   1.471       .  S
C562        C563   1.359       .  A
C562        H565   1.083       .  S
C563        H566   1.075       .  S
C564        C621   1.483   1_554  S
N567        C568   1.356       .  A
C568        C569   1.384       .  A
C568        C802   1.491       .  S
C569        H572   1.082       .  S
C570        C571   1.387       .  A
C570        H573   1.081       .  S
C571        C811   1.497   1_554  S
O574        C582   1.254       .  A
O574       Co594   1.973       .  S
O575        C583   1.274       .  A
O575       Co595   1.976       .  S
O576        C584   1.281       .  A
O576       Co596   2.039       .  S
O577        C585   1.297       .  A
O577       Co597   2.082       .  S
O578        C584   1.272       .  A
O578       Co595   1.989       .  S
O579        C585   1.275       .  A
O579       Co594   1.913       .  S
O580        C583   1.287       .  A
O580       Co597   2.038       .  S
O581        C582   1.262       .  A
O581       Co596   2.008       .  S
C582        C718   1.484       .  S
C583        C631   1.491       .  S
C584        C703   1.497       .  S
C585        C643   1.476       .  S
O586        C599   1.297       .  A
O586       Co594   2.074       .  S
O587        C600   1.275       .  A
O587       Co595   2.001       .  S
O588        C601   1.282       .  A
O588       Co596   1.905       .  S
O589        C602   1.266       .  A
O589       Co597   2.005       .  S
O590        C602   1.263       .  A
O590       Co595   2.005       .  S
O591        C601   1.313       .  A
O591       Co594   2.135       .  S
O592        C599   1.278       .  A
O592       Co597   1.919       .  S
O593        C600   1.273       .  A
O593       Co596   1.964       .  S
Co594       O598   2.040       .  S
Co595       O598   2.018       .  S
Co596       O598   1.918       .  S
Co597       O598   1.984       .  S
C599        C670   1.489       .  S
C600        C679   1.460       .  S
C601        C691   1.501       .  S
C602        C655   1.496       .  S
N603        C607   1.361       .  A
N603        C706   1.451       .  S
C604        C605   1.382       .  A
C604        C715   1.486       .  S
C605        C606   1.373       .  A
C605        H608   1.083       .  S
C606        H609   1.083       .  S
N610        C614   1.368       .  A
N610        C646   1.446       .  S
C611        C612   1.378       .  A
C611        C634   1.485       .  S
C612        C613   1.375       .  A
C612        H615   1.082       .  S
C613        H616   1.081       .  S
N617        C621   1.373       .  A
N617        C618   1.361       .  A
C618        C619   1.381       .  A
C618        C682   1.477       .  S
C619        C620   1.361       .  A
C619        H622   1.082       .  S
C620        C621   1.382       .  A
C620        H623   1.080       .  S
N624        C667   1.479       .  S
C625        C626   1.377       .  A
C625        C658   1.494       .  S
C626        C627   1.363       .  A
C626        H629   1.083       .  S
C627        C628   1.383       .  A
C627        H630   1.079       .  S
C631        C632   1.408       .  A
C631        C636   1.413       .  A
C632        C633   1.403       .  A
C632        H637   1.083       .  S
C633        C634   1.405       .  A
C633        O638   1.371       .  S
C634        C635   1.404       .  A
C635        C636   1.406       .  A
C635        H639   1.084       .  S
C636        O640   1.371       .  S
O638        H642   0.991       .  S
O640        H641   0.992       .  S
C643        C644   1.400       .  A
C643        C648   1.409       .  A
C644        C645   1.405       .  A
C644        H649   1.084       .  S
C645        C646   1.412       .  A
C645        O650   1.372       .  S
C646        C647   1.404       .  A
C647        C648   1.405       .  A
C648        O652   1.371       .  S
O650        H654   0.992       .  S
O652        H653   0.992       .  S
C655        C656   1.411       .  A
C655        C660   1.411       .  A
C656        C657   1.402       .  A
C656        H661   1.083       .  S
C657        C658   1.409       .  A
C657        O662   1.372       .  S
C658        C659   1.408       .  A
C659        C660   1.410       .  A
C659        H663   1.083       .  S
C660        O664   1.371       .  S
O662        H666   0.992       .  S
O664        H665   0.992       .  S
C667        C668   1.412       .  A
C667        C672   1.422       .  A
C668        C669   1.399       .  A
C669        C670   1.408       .  A
C669        O674   1.371       .  S
C670        C671   1.402       .  A
C671        C672   1.410       .  A
C671        H675   1.083       .  S
C672        O676   1.371       .  S
O674        H678   0.991       .  S
O676        H677   0.991       .  S
C679        C680   1.395       .  A
C679        C684   1.408       .  A
C680        C681   1.389       .  A
C680        H685   1.084       .  S
C681        C682   1.413       .  A
C681        O686   1.373       .  S
C682        C683   1.404       .  A
C683        C684   1.401       .  A
C683        H687   1.080       .  S
C684        O688   1.372       .  S
O686        H690   0.993       .  S
O688        H689   0.992       .  S
C691        C692   1.405       .  A
C691        C696   1.415       .  A
C692        C693   1.410       .  A
C692        H697   1.083       .  S
C693        C694   1.412       .  A
C693        O698   1.371       .  S
C694        C695   1.408       .  A
C695        C696   1.418       .  A
C696        O700   1.372       .  S
O698        H702   0.991       .  S
C703        C704   1.405       .  A
C703        C708   1.416       .  A
C704        C705   1.405       .  A
C704        H709   1.084       .  S
C705        C706   1.415       .  A
C705        O710   1.371       .  S
C706        C707   1.403       .  A
C707        C708   1.412       .  A
C707        H711   1.083       .  S
C708        O712   1.371       .  S
O710        H714   0.992       .  S
O712        H713   0.991       .  S
C715        C716   1.409       .  A
C715        C720   1.404       .  A
C716        C717   1.400       .  A
C716        H721   1.084       .  S
C717        C718   1.407       .  A
C717        O722   1.372       .  S
C718        C719   1.410       .  A
C719        C720   1.406       .  A
C719        H723   1.083       .  S
C720        O724   1.372       .  S
O722        H726   0.993       .  S
O724        H725   0.992       .  S
C727        C728   1.409       .  A
C727        C732   1.402       .  A
C728        C729   1.396       .  A
C728        H733   1.084       .  S
C729        C730   1.400       .  A
C729        O734   1.372       .  S
C730        C731   1.406       .  A
C731        C732   1.397       .  A
C731        H735   1.084       .  S
C732        O736   1.373       .  S
O734        H738   0.992       .  S
O736        H737   0.992       .  S
C739        C740   1.413       .  A
C739        C744   1.416       .  A
C740        C741   1.416       .  A
C740        H745   1.083       .  S
C741        C742   1.414       .  A
C742        C743   1.412       .  A
C743        C744   1.418       .  A
C743        H747   1.083       .  S
C744        O748   1.370       .  S
O746        H750   0.992       .  S
O748        H749   0.992       .  S
C751        C752   1.404       .  A
C751        C756   1.414       .  A
C752        C753   1.405       .  A
C752        H757   1.084       .  S
C753        C754   1.413       .  A
C753        O758   1.367       .  S
C754        C755   1.404       .  A
C755        C756   1.402       .  A
C755        H759   1.084       .  S
C756        O760   1.371       .  S
O758        H762   0.992       .  S
O760        H761   0.991       .  S
C763        C764   1.401       .  A
C763        C768   1.419       .  A
C764        C765   1.392       .  A
C764        H769   1.083       .  S
C765        C766   1.403       .  A
C765        O770   1.369       .  S
C766        C767   1.390       .  A
C767        C768   1.397       .  A
C767        H771   1.080       .  S
O770        H774   0.990       .  S
O772        H773   0.992       .  S
C775        C776   1.406       .  A
C775        C780   1.413       .  A
C776        C777   1.403       .  A
C776        H781   1.083       .  S
C777        C778   1.410       .  A
C777        O782   1.371       .  S
C778        C779   1.405       .  A
C779        C780   1.402       .  A
C779        H783   1.083       .  S
C780        O784   1.372       .  S
O782        H786   0.993       .  S
O784        H785   0.991       .  S
C787        C788   1.405       .  A
C787        C792   1.404       .  A
C788        C789   1.399       .  A
C788        H793   1.084       .  S
C789        C790   1.404   1_556  A
C790        C791   1.407       .  A
C791        C792   1.405   1_554  A
C791        H795   1.083       .  S
C792        O796   1.372       .  S
O794        H798   0.992       .  S
O796        H797   0.992       .  S
C799        C800   1.402       .  A
C799        C804   1.410       .  A
C800        C801   1.402       .  A
C800        H805   1.084       .  S
C801        C802   1.415       .  A
C801        O806   1.369       .  S
C802        C803   1.405       .  A
C803        C804   1.398       .  A
C803        H807   1.084       .  S
C804        O808   1.371       .  S
O806        H810   0.992       .  S
O808        H809   0.992       .  S
C811        C812   1.405       .  A
C811        C816   1.413       .  A
C812        C813   1.396       .  A
C813        C814   1.412       .  A
C813        O818   1.373       .  S
C814        C815   1.405       .  A
C815        C816   1.402       .  A
C815        H819   1.082       .  S
C816        O820   1.371       .  S
O818        H822   0.992       .  S
O820        H821   0.991       .  S
C823        C824   1.404       .  A
C823        C828   1.402       .  A
C824        C825   1.410       .  A
C824        H829   1.083       .  S
C825        C826   1.416       .  A
C825        O830   1.371       .  S
C826        C827   1.402       .  A
C827        C828   1.382       .  A
C827        H831   1.075       .  S
C828        O832   1.374       .  S
O830        H834   0.992       .  S
O832        H833   0.990       .  S
C835        C836   1.405       .  A
C835        C840   1.407       .  A
C836        C837   1.408       .  A
C836        H841   1.084       .  S
C837        C838   1.414       .  A
C837        O842   1.371       .  S
C838        C839   1.409       .  A
C839        C840   1.403       .  A
C839        H843   1.078       .  S
C840        O844   1.373       .  S
O842        H846   0.992       .  S
O844        H845   0.992       .  S
C847        C848   1.406       .  A
C847        C852   1.413       .  A
C848        C849   1.398       .  A
C848        H853   1.083       .  S
C849        C850   1.408       .  A
C849        O854   1.372       .  S
C850        C851   1.405       .  A
C851        C852   1.406       .  A
C851        H855   1.083       .  S
C852        O856   1.371       .  S
O854        H858   0.993       .  S
O856        H857   0.992       .  S
C859        C860   1.399       .  A
C859        C864   1.411       .  A
C860        C861   1.392       .  A
C860        H865   1.083       .  S
C861        C862   1.409       .  A
C861        O866   1.373       .  S
C862        C863   1.402       .  A
C863        C864   1.406       .  A
C863        H867   1.084       .  S
C864        O868   1.370   1_556  S
O866        H870   0.991       .  S
O868        H869   0.991       .  S
C871        C872   1.398       .  A
C871        C876   1.415       .  A
C872        C873   1.405       .  A
C872        H877   1.080       .  S
C873        C874   1.416       .  A
C873        O878   1.372       .  S
C874        C875   1.401   1_565  A
C875        C876   1.399   1_545  A
C875        H879   1.084       .  S
C876        O880   1.377   1_565  S
O878        H882   0.991       .  S
O880        H881   0.992       .  S
C883        C884   1.398       .  A
C883        C888   1.412       .  A
C884        C885   1.392       .  A
C884        H889   1.084       .  S
C885        C886   1.419       .  A
C885        O890   1.376   1_556  S
C886        C887   1.406       .  A
C887        C888   1.405       .  A
C887        H891   1.083       .  S
C888        O892   1.371       .  S
O890        H894   0.992       .  S
O892        H893   0.992   1_565  S
C895        C896   1.409       .  A
C895        C900   1.418       .  A
C896        C897   1.407       .  A
C896        H901   1.081       .  S
C897        C898   1.411       .  A
C897        O902   1.372   1_565  S
C898        C899   1.404       .  A
C899        C900   1.406       .  A
C899        H903   1.084       .  S
C900        O904   1.371       .  S
O902        H906   0.992       .  S
O904        H905   0.992       .  S
C907        C908   1.411       .  A
C907        C912   1.413       .  A
C908        C909   1.408       .  A
C908        H913   1.083       .  S
C909        C910   1.406       .  A
C909        O914   1.371       .  S
C910        C911   1.402       .  A
C911        C912   1.398       .  A
C911        H915   1.083       .  S
C912        O916   1.372       .  S
O914        H918   0.991       .  S
O916        H917   0.991       .  S
