geometry optimzed in LAMMPS
_audit_creation_date              2020-12-01 
_audit_creation_method            'lammps2cif' 
_symmetry_space_group_name_H-M    'P1' 
_symmetry_Int_Tables_number       1 
_symmetry_cell_setting            triclinic 
loop_ 
_symmetry_equiv_pos_as_xyz 
  x,y,z 
_cell_length_a                    44.71460559 
_cell_length_b                    41.56312282342956 
_cell_length_c                    45.422762529082036 
_cell_angle_alpha                 89.99359545280484 
_cell_angle_beta                  90.00235729664557 
_cell_angle_gamma                 90.88127885346296 
loop_ 
_atom_site_label 
_atom_site_type_symbol 
_atom_site_fract_x 
_atom_site_fract_y 
_atom_site_fract_z 
_atom_site_charge 
O1          O  0.18774262  0.23201154  0.22185565    -0.79700
O2          O  0.28670845  0.20237465  0.28380968    -0.79700
O3          O  0.26947999  0.22391739  0.17777349    -0.79700
O4          O  0.22822208  0.20342633  0.28515194    -0.79700
O5          O  0.28665550  0.20239267  0.21925006    -0.79800
O6          O  0.18780170  0.23199186  0.28139668    -0.79700
O7          O  0.26962643  0.22387818  0.32532860    -0.79700
O8          O  0.22815352  0.20344390  0.21802190    -0.79700
C9          C  0.20045791  0.20642481  0.21405480     1.10000
C10         C  0.28658123  0.20421908  0.31227638     1.09900
C11         C  0.28646742  0.20425374  0.19078347     1.10000
C12         C  0.20053415  0.20640268  0.28916664     1.09900
O13         O  0.20711731  0.29845532  0.28191884    -0.79700
O14         O  0.31235408  0.26685088  0.22243057    -0.79800
O15         O  0.22015198  0.26402381  0.18725212    -0.79700
O16         O  0.27278239  0.28406912  0.30174482    -0.79700
O17         O  0.31240667  0.26683504  0.28061252    -0.79700
O18         O  0.20706348  0.29847698  0.22133214    -0.79700
O19         O  0.22027183  0.26398178  0.31596271    -0.79700
O20         O  0.27269002  0.28409268  0.20137142    -0.79700
Co21       Co  0.20093588  0.26504896  0.25162225     1.51500
Co22       Co  0.29322081  0.23691981  0.25153217     1.51700
Co23       Co  0.25225460  0.24336288  0.21145582     1.51600
Co24       Co  0.25233061  0.24334369  0.29168784     1.51500
O25         O  0.24697513  0.25780197  0.25157810    -1.41600
C26         C  0.20773100  0.28993361  0.30856082     1.09900
C27         C  0.30017977  0.28621610  0.20524669     1.10000
C28         C  0.20763325  0.28997499  0.19468590     1.10000
C29         C  0.30026460  0.28619463  0.29782032     1.09900
C30         C  0.38648257  0.37644035  0.38747551     0.86900
C31         C  0.40804410  0.39898058  0.37063706    -0.53300
C32         C  0.42564099  0.41748206  0.38851585     0.09900
C33         C  0.41983691  0.41165469  0.42168078     0.20800
C34         C  0.40647196  0.35659764  0.40816317    -0.54000
C35         C  0.42393881  0.37523597  0.42630383     0.10000
C36         C  0.36848424  0.39844099  0.40792496    -0.53600
C37         C  0.38603290  0.41681670  0.42604395     0.10500
H38         H  0.40919454  0.40034107  0.34678140     0.15100
H39         H  0.43413085  0.42685143  0.43629082     0.00800
H40         H  0.40689722  0.33048842  0.40834608     0.15400
H41         H  0.34422570  0.39935103  0.40814362     0.15100
C42         C  0.38753422  0.12115543  0.38927141     0.86900
C43         C  0.37031340  0.09853190  0.41016176    -0.53300
C44         C  0.38830609  0.08009738  0.42706965     0.09900
C45         C  0.42201592  0.08608894  0.42150738     0.20800
C46         C  0.40880238  0.14109457  0.40919716    -0.54000
C47         C  0.42709598  0.12256066  0.42611724     0.10000
C48         C  0.40802473  0.09920336  0.37114124    -0.53600
C49         C  0.42622035  0.08079407  0.38816100     0.10500
H50         H  0.34606417  0.09699265  0.41133330     0.15100
H51         H  0.43668360  0.07093603  0.43536323     0.00800
H52         H  0.40916073  0.16720098  0.41006270     0.15400
H53         H  0.40816438  0.09830521  0.34725089     0.15100
C54         C  0.11634175  0.37900573  0.39021281     0.86900
C55         C  0.13346142  0.40258521  0.41032488    -0.53300
C56         C  0.11528224  0.42174161  0.42640745     0.09900
C57         C  0.08164814  0.41540563  0.42083672     0.20800
C58         C  0.09508981  0.35998033  0.41067707    -0.54000
C59         C  0.07680794  0.37915007  0.42679567     0.10000
C60         C  0.09593252  0.40007714  0.37108324    -0.53600
C61         C  0.07760625  0.41922218  0.38727148     0.10500
H62         H  0.15768858  0.40379362  0.41199075     0.15100
H63         H  0.06682919  0.43103679  0.43406327     0.00800
H64         H  0.09454485  0.33390978  0.41230795     0.15400
H65         H  0.09610544  0.40005047  0.34717986     0.15100
C66         C  0.11764427  0.12428976  0.38739700     0.86900
C67         C  0.09651579  0.10082040  0.37121678    -0.53300
C68         C  0.07930078  0.08253518  0.38955963     0.09900
C69         C  0.08491430  0.08940417  0.42250919     0.20800
C70         C  0.09716165  0.14433863  0.40757096    -0.54000
C71         C  0.07984788  0.12584886  0.42610274     0.10000
C72         C  0.13604562  0.10326880  0.40838391    -0.53600
C73         C  0.11887313  0.08496466  0.42689966     0.10500
H74         H  0.09516143  0.09888499  0.34740003     0.15100
H75         H  0.07090228  0.07427806  0.43743753     0.00800
H76         H  0.09641091  0.17042735  0.40721840     0.15400
H77         H  0.16031398  0.10254755  0.40832014     0.15100
N78         N  0.00215273  0.45055594  0.37913625    -0.36200
N79         N  0.04757925  0.00049764  0.37567671    -0.56700
N80         N  0.00250799  0.04932780  0.38013690    -0.36200
N81         N  0.45704486  0.99971223  0.37610749    -0.56700
C82         C  0.02610174  0.43311840  0.37127624     0.27400
C83         C  0.47762999  0.43251731  0.37283244     0.27400
C84         C  0.02697888  0.06811533  0.37581863     0.27400
C85         C  0.47848267  0.06767506  0.37463378     0.27400
C86         C  0.06531831  0.47491247  0.37170981     0.36000
C87         C  0.06559536  0.02672716  0.37364479     0.36000
C88         C  0.43909062  0.47357226  0.37299238     0.36000
C89         C  0.43948198  0.02543464  0.37200330     0.36000
C90         C  0.01678166  0.40440987  0.35875666    -0.21400
C91         C  0.48593622  0.40403720  0.35971507    -0.21400
C92         C  0.01853835  0.09832454  0.36665275    -0.21400
C93         C  0.48772525  0.09804606  0.36592138    -0.21400
C94         C  0.09384771  0.48488192  0.36429408    -0.22500
C95         C  0.09400864  0.01793753  0.36543901    -0.22500
C96         C  0.41097674  0.48253275  0.36403224    -0.22500
C97         C  0.41123826  0.01561921  0.36337810    -0.22500
C98         C  0.05610859  0.44267716  0.37482307    -0.17800
C99         C  0.44797137  0.44173526  0.37765290    -0.17800
C100        C  0.44844407  0.05757892  0.37666738    -0.17800
C101        C  0.05672732  0.05845020  0.37918968    -0.17800
H102        H  0.03078568  0.38610699  0.34927180     0.15100
H103        H  0.47124730  0.38547023  0.35093465     0.15100
H104        H  0.03314665  0.11799617  0.36001698     0.15100
H105        H  0.47367265  0.11746249  0.35867507     0.15100
H106        H  0.11218022  0.46980690  0.35775458     0.13300
H107        H  0.11248927  0.03383365  0.35984556     0.13300
H108        H  0.39267946  0.46675991  0.35760118     0.13300
H109        H  0.39310621  0.03081815  0.35654429     0.13300
H110        H  0.00253805  0.47165612  0.39142118     0.26600
H111        H  0.00224562  0.02674696  0.38983581     0.26600
C112        C  0.38634223  0.37645126  0.11552164     0.86900
C113        C  0.36834460  0.39845119  0.09506516    -0.53300
C114        C  0.38589504  0.41683976  0.07695652     0.09900
C115        C  0.41969916  0.41168779  0.08133326     0.20800
C116        C  0.40634775  0.35662201  0.09484317    -0.54000
C117        C  0.42381689  0.37527184  0.07671115     0.10000
C118        C  0.40788925  0.39899435  0.13237047    -0.53600
C119        C  0.42548630  0.41750790  0.11450058     0.10500
H120        H  0.34408562  0.39934917  0.09483267     0.15100
H121        H  0.43399446  0.42689453  0.06673109     0.00800
H122        H  0.40678811  0.33051333  0.09466613     0.15400
H123        H  0.40902835  0.40035029  0.15622671     0.15100
C124        C  0.11618080  0.37903130  0.11307082     0.86900
C125        C  0.09574744  0.40010876  0.13216436    -0.53300
C126        C  0.07744213  0.41925001  0.11594269     0.09900
C127        C  0.08152619  0.41542072  0.08238485     0.20800
C128        C  0.09495657  0.35999868  0.09258677    -0.54000
C129        C  0.07669610  0.37916430  0.07643465     0.10000
C130        C  0.13332539  0.40260289  0.09297145    -0.53600
C131        C  0.11516618  0.42175106  0.07685635     0.10500
H132        H  0.09589112  0.40008988  0.15606789     0.15100
H133        H  0.06672536  0.43104840  0.06913039     0.00800
H134        H  0.09441640  0.33392780  0.09096499     0.15400
H135        H  0.15755483  0.40381426  0.09133845     0.15100
N136        N  0.04577033  0.36870481  0.00159380    -0.36200
N137        N  0.00005481  0.36278360  0.04631724    -0.56700
N138        N  0.45418262  0.36468884  0.00152936    -0.36200
N139        N  0.00012485  0.36274888  0.45680790    -0.56700
C140        C  0.06275589  0.36265444  0.02548612     0.27400
C141        C  0.06279243  0.36265113  0.47772987     0.27400
C142        C  0.43710631  0.35849687  0.02549953     0.27400
C143        C  0.43714610  0.35847043  0.47753782     0.27400
C144        C  0.02422597  0.36264591  0.06414773     0.36000
C145        C  0.47595458  0.36036908  0.06414235     0.36000
C146        C  0.02432104  0.36261119  0.43901199     0.36000
C147        C  0.47605143  0.36031149  0.43895074     0.36000
C148        C  0.09039290  0.35171806  0.01679463    -0.21400
C149        C  0.09041585  0.35171537  0.48646760    -0.21400
C150        C  0.40926387  0.34730536  0.01670741    -0.21400
C151        C  0.40928927  0.34728836  0.48629587    -0.21400
C152        C  0.01560510  0.35707821  0.09283780    -0.22500
C153        C  0.48488215  0.35566964  0.09285031    -0.22500
C154        C  0.01574198  0.35701861  0.41031405    -0.22500
C155        C  0.48502028  0.35559529  0.41025913    -0.22500
C156        C  0.05402635  0.36704815  0.05489393    -0.17800
C157        C  0.05410635  0.36703642  0.44830734    -0.17800
C158        C  0.44607049  0.36282323  0.44800004    -0.17800
C159        C  0.44598597  0.36287244  0.05504764    -0.17800
H160        H  0.10835253  0.34384007  0.03088553     0.15100
H161        H  0.10839641  0.34383479  0.47240700     0.15100
H162        H  0.39115813  0.33921771  0.03080490     0.15100
H163        H  0.39120567  0.33918822  0.47217687     0.15100
H164        H  0.03013477  0.35319624  0.11146592     0.13300
H165        H  0.47060574  0.35069611  0.11155142     0.13300
H166        H  0.03029879  0.35313272  0.39170922     0.13300
H167        H  0.47077085  0.35060743  0.39154087     0.13300
H168        H  0.02539540  0.38039460  0.00157562     0.26600
H169        H  0.47475127  0.37659341  0.00153901     0.26600
C170        C  0.11748875  0.12430970  0.11587815     0.86900
C171        C  0.13589806  0.10327545  0.09491369    -0.53300
C172        C  0.11873398  0.08497813  0.07638667     0.09900
C173        C  0.08477423  0.08943484  0.08074623     0.20800
C174        C  0.09703231  0.14436569  0.09567719    -0.54000
C175        C  0.07972650  0.12588029  0.07713636     0.10000
C176        C  0.09633420  0.10085287  0.13204626    -0.53600
C177        C  0.07912690  0.08257437  0.11369195     0.10500
H178        H  0.16016586  0.10254260  0.09499893     0.15100
H179        H  0.07076910  0.07431370  0.06580944     0.00800
H180        H  0.09629484  0.17045517  0.09601680     0.15400
H181        H  0.09495960  0.09891907  0.15586221     0.15100
N182        N  0.00197994  0.45059231  0.12396060    -0.36200
N183        N  0.04739397  0.00053224  0.12749300    -0.56700
N184        N  0.00232208  0.04937036  0.12300456    -0.36200
N185        N  0.45685816  0.99975026  0.12693943    -0.56700
C186        C  0.02591782  0.43315625  0.13186247     0.27400
C187        C  0.47744843  0.43255974  0.13025043     0.27400
C188        C  0.02678657  0.06815361  0.12737165     0.27400
C189        C  0.47828624  0.06771270  0.12847800     0.27400
C190        C  0.06513309  0.47494533  0.13147877     0.36000
C191        C  0.06540164  0.02676276  0.12957921     0.36000
C192        C  0.43890211  0.47360597  0.13000964     0.36000
C193        C  0.43928269  0.02546778  0.13101201     0.36000
C194        C  0.01658207  0.40445835  0.14439609    -0.21400
C195        C  0.48573701  0.40408882  0.14340271    -0.21400
C196        C  0.01833148  0.09835474  0.13654030    -0.21400
C197        C  0.48751526  0.09807556  0.13722257    -0.21400
C198        C  0.09364557  0.48491210  0.13895933    -0.22500
C199        C  0.09380028  0.01796973  0.13783549    -0.22500
C200        C  0.41076784  0.48255771  0.13890947    -0.22500
C201        C  0.41102113  0.01564390  0.13957078    -0.22500
C202        C  0.05592847  0.44271106  0.12835025    -0.17800
C203        C  0.44779740  0.44177103  0.12537609    -0.17800
C204        C  0.44825067  0.05761744  0.12638600    -0.17800
C205        C  0.05654056  0.05849071  0.12404092    -0.17800
H206        H  0.03057395  0.38616069  0.15391206     0.15100
H207        H  0.47103701  0.38552798  0.15217880     0.15100
H208        H  0.03292968  0.11802153  0.14320666     0.15100
H209        H  0.47345119  0.11748642  0.14445475     0.15100
H210        H  0.11196634  0.46983456  0.14553071     0.13300
H211        H  0.11226795  0.03386340  0.14347504     0.13300
H212        H  0.39246127  0.46677838  0.14530287     0.13300
H213        H  0.39287515  0.03083696  0.14637446     0.13300
H214        H  0.00238016  0.47168731  0.11166237     0.26600
H215        H  0.00207599  0.02679775  0.11329403     0.26600
N216        N  0.12408831  0.45430935  0.00163639    -0.36200
N217        N  0.12981355  0.00348380  0.45714753    -0.56700
N218        N  0.12770885  0.05310169  0.00164698    -0.36200
N219        N  0.12970227  0.00349540  0.04614707    -0.56700
C220        C  0.12898705  0.43577996  0.47780661     0.27400
C221        C  0.12895255  0.43578519  0.02547988     0.27400
C222        C  0.13507554  0.07086884  0.47779278     0.27400
C223        C  0.13501014  0.07087582  0.02551409     0.27400
C224        C  0.13226367  0.47746480  0.43962641     0.36000
C225        C  0.13432405  0.02929835  0.43963418     0.36000
C226        C  0.13214412  0.47747091  0.06366289     0.36000
C227        C  0.13417338  0.02930416  0.06367204     0.36000
C228        C  0.13790427  0.40557323  0.48650113    -0.21400
C229        C  0.13788290  0.40557664  0.01680992    -0.21400
C230        C  0.14830793  0.09957308  0.48647251    -0.21400
C231        C  0.14826857  0.09957643  0.01685749    -0.21400
C232        C  0.14136610  0.48661795  0.41183075    -0.22500
C233        C  0.14262029  0.01970057  0.41181756    -0.22500
C234        C  0.14119969  0.48661669  0.09147419    -0.22500
C235        C  0.14243539  0.01970060  0.09149904    -0.22500
C236        C  0.12625500  0.44561865  0.44842448    -0.17800
C237        C  0.12616746  0.44562603  0.05485400    -0.17800
C238        C  0.13072760  0.06138593  0.05486023    -0.17800
C239        C  0.13085880  0.06137885  0.44843969    -0.17800
H240        H  0.14482265  0.38606934  0.47242212     0.15100
H241        H  0.14477920  0.38607473  0.03090667     0.15100
H242        H  0.15776615  0.11805633  0.47234054     0.15100
H243        H  0.15769268  0.11806101  0.03100635     0.15100
H244        H  0.14740155  0.47095459  0.39387043     0.13300
H245        H  0.14975052  0.03502980  0.39383222     0.13300
H246        H  0.14721935  0.47094880  0.10944034     0.13300
H247        H  0.14953714  0.03502575  0.10949513     0.13300
H248        H  0.11432661  0.47682316  0.00162602     0.26600
H249        H  0.11501956  0.03191940  0.00163214     0.26600
N250        N  0.00350226  0.13522760  0.04673493    -0.36200
N251        N  0.04909429  0.14074303  0.00159351    -0.56700
N252        N  0.00358024  0.13519862  0.45638691    -0.36200
N253        N  0.45792418  0.13763114  0.00152503    -0.56700
C254        C  0.02776877  0.14200234  0.06355738     0.27400
C255        C  0.47903656  0.14041901  0.06351260     0.27400
C256        C  0.02787195  0.14197940  0.43960211     0.27400
C257        C  0.47914308  0.14040585  0.43957316     0.27400
C258        C  0.06720609  0.14188926  0.02545349     0.36000
C259        C  0.06724652  0.14186877  0.47776393     0.36000
C260        C  0.43977240  0.13836820  0.02530386     0.36000
C261        C  0.43981460  0.13835566  0.47771351     0.36000
C262        C  0.01866406  0.15256894  0.09090928    -0.21400
C263        C  0.48778525  0.15157975  0.09087379    -0.21400
C264        C  0.01881049  0.15256792  0.41224051    -0.21400
C265        C  0.48793335  0.15158391  0.41222893    -0.21400
C266        C  0.09644288  0.14685203  0.01677568    -0.22500
C267        C  0.09646811  0.14684001  0.48648700    -0.22200
C268        C  0.41056166  0.14256779  0.01660509    -0.22500
C269        C  0.41058855  0.14255968  0.48635699    -0.22500
C270        C  0.05786851  0.13839918  0.05499522    -0.17800
C271        C  0.44905905  0.13523855  0.05479740    -0.17800
C272        C  0.44915411  0.13521817  0.44823861    -0.17800
C273        C  0.05795655  0.13836589  0.44820958    -0.17800
H274        H  0.03285067  0.16082536  0.10874771     0.15100
H275        H  0.47334183  0.15898501  0.10864993     0.15100
H276        H  0.03302460  0.16083385  0.39442618     0.15100
H277        H  0.47351739  0.15900154  0.39443273     0.15100
H278        H  0.11547044  0.15116031  0.03097601     0.13300
H279        H  0.11551905  0.15113895  0.47231549     0.13300
H280        H  0.39151368  0.14640079  0.03074039     0.13300
H281        H  0.39156577  0.14638608  0.47218488     0.13300
H282        H  0.00368783  0.12362754  0.02649960     0.26600
H283        H  0.00373189  0.12358475  0.47661914     0.26600
C284        C  0.38734912  0.12119017  0.11368269     0.86900
C285        C  0.40863969  0.14112481  0.09377150    -0.53300
C286        C  0.42695759  0.12258742  0.07688413     0.09900
C287        C  0.42187334  0.08611668  0.08150470     0.20800
C288        C  0.37015519  0.09855498  0.09278289    -0.54000
C289        C  0.38816955  0.08011479  0.07590620     0.10000
C290        C  0.40782419  0.09924660  0.13184705    -0.53600
C291        C  0.42604296  0.08083527  0.11485774     0.10500
H292        H  0.40900036  0.16723109  0.09289745     0.15100
H293        H  0.43655906  0.07096131  0.06767429     0.00800
H294        H  0.34590753  0.09701414  0.09158160     0.15400
H295        H  0.40793549  0.09835391  0.15573791     0.15100
N296        N  0.37953074  0.04727007  0.00148679    -0.36200
N297        N  0.37411574  0.49796517  0.04607520    -0.56700
N298        N  0.37646514  0.44875255  0.00149383    -0.36200
N299        N  0.37423030  0.49795139  0.45689939    -0.56700
C300        C  0.37224616  0.06490199  0.02526178     0.27400
C301        C  0.37229062  0.06489351  0.47768942     0.27400
C302        C  0.37134204  0.43018858  0.02542416     0.27400
C303        C  0.37140721  0.43018048  0.47755779     0.27400
C304        C  0.37204114  0.02392486  0.06369006     0.36000
C305        C  0.37029031  0.47211989  0.06367104     0.36000
C306        C  0.37218654  0.02390999  0.43927232     0.36000
C307        C  0.37045169  0.47210739  0.43929819     0.36000
C308        C  0.35903031  0.09318671  0.01662013    -0.21400
C309        C  0.35905835  0.09318107  0.48629229    -0.21400
C310        C  0.36202959  0.39983773  0.01668107    -0.21400
C311        C  0.36207017  0.39983284  0.48629099    -0.21400
C312        C  0.36389651  0.01475937  0.09174204    -0.22500
C313        C  0.36280400  0.48167900  0.09174947    -0.22500
C314        C  0.36410937  0.01474391  0.41120341    -0.22500
C315        C  0.36302508  0.48166552  0.41120196    -0.22500
C316        C  0.37685797  0.05576561  0.05451593    -0.17800
C317        C  0.37696618  0.05575179  0.44844879    -0.17800
C318        C  0.37451648  0.44008701  0.44807085    -0.17800
C319        C  0.37438254  0.44009953  0.05491405    -0.17800
H320        H  0.34967976  0.11143082  0.03073422     0.15100
H321        H  0.34973380  0.11142067  0.47215175     0.15100
H322        H  0.35491805  0.38020958  0.03079940     0.15100
H323        H  0.35499187  0.38020200  0.47216393     0.15100
H324        H  0.35819975  0.03040049  0.10982707     0.13300
H325        H  0.35637492  0.46631700  0.10995094     0.13300
H326        H  0.35844316  0.03038446  0.39310485     0.13300
H327        H  0.35663394  0.46630309  0.39299129     0.13300
H328        H  0.39211411  0.02640473  0.00150401     0.26600
H329        H  0.38657939  0.47137053  0.00150400     0.26600
C330        C  0.36751017  0.35711637  0.36763629    -0.18100
C331        C  0.35182530  0.34240167  0.35054774     0.06000
C332        C  0.33350551  0.32498951  0.33061858     0.07900
C333        C  0.31807006  0.30862948  0.31458492    -0.18900
C334        C  0.36696743  0.14020188  0.37137689    -0.18100
C335        C  0.34772357  0.15379201  0.35778307     0.06000
C336        C  0.32444278  0.16915700  0.34244830     0.07900
C337        C  0.30563631  0.18366284  0.32907565    -0.18900
C338        C  0.19169175  0.30842473  0.32972459    -0.18100
C339        C  0.17527451  0.32400082  0.34489928     0.06000
C340        C  0.15438669  0.34239253  0.36053618     0.07900
C341        C  0.13654795  0.35855864  0.37345454    -0.18900
C342        C  0.31795557  0.30865323  0.18845202    -0.18100
C343        C  0.33337552  0.32500736  0.17239727     0.06000
C344        C  0.35168650  0.34240873  0.15245079     0.07900
C345        C  0.36736915  0.35711865  0.13535531    -0.18900
C346        C  0.13630719  0.14280948  0.36656294    -0.18100
C347        C  0.15161988  0.15517215  0.34764850     0.06000
C348        C  0.16935599  0.16922882  0.32509700     0.07900
C349        C  0.18413875  0.18368081  0.30702811    -0.18900
C350        C  0.13637316  0.35859515  0.12985770    -0.18100
C351        C  0.15422332  0.34244385  0.14277827     0.06000
C352        C  0.17513311  0.32406536  0.15840046     0.07900
C353        C  0.19156957  0.30848685  0.17355451    -0.18900
C354        C  0.30549190  0.18371063  0.17393557    -0.18100
C355        C  0.32427083  0.16920911  0.16052122     0.06000
C356        C  0.34752593  0.15383853  0.14515088     0.07900
C357        C  0.36676192  0.14024221  0.13155127    -0.18900
C358        C  0.13614724  0.14282517  0.13672110    -0.18100
C359        C  0.15146630  0.15519141  0.15562955     0.06000
C360        C  0.16922128  0.16925693  0.17816424     0.07900
C361        C  0.18402730  0.18371132  0.19621385    -0.18900
O362        O  0.18774294  0.23201168  0.72185511    -0.79700
O363        O  0.28670835  0.20237430  0.78380881    -0.79700
O364        O  0.26948026  0.22391841  0.67777290    -0.79700
O365        O  0.22822203  0.20342619  0.78515145    -0.79700
O366        O  0.28665581  0.20239310  0.71924920    -0.79800
O367        O  0.18780170  0.23199176  0.78139611    -0.79700
O368        O  0.26962661  0.22387757  0.82532795    -0.79700
O369        O  0.22815393  0.20344420  0.71802116    -0.79700
C370        C  0.20045832  0.20642506  0.71405409     1.10000
C371        C  0.28658134  0.20421852  0.81227553     1.09900
C372        C  0.28646761  0.20425451  0.69078263     1.10000
C373        C  0.20053409  0.20640256  0.78916611     1.09900
O374        O  0.20711723  0.29845523  0.78191860    -0.79700
O375        O  0.31235423  0.26685118  0.72243046    -0.79800
O376        O  0.22015226  0.26402420  0.68725177    -0.79700
O377        O  0.27278252  0.28406882  0.80174458    -0.79700
O378        O  0.31240682  0.26683465  0.78061244    -0.79700
O379        O  0.20706363  0.29847719  0.72133187    -0.79700
O380        O  0.22027193  0.26398163  0.81596239    -0.79700
O381        O  0.27269019  0.28409328  0.70137144    -0.79700
Co382      Co  0.20093598  0.26504900  0.75162185     1.51500
Co383      Co  0.29322091  0.23691983  0.75153171     1.51700
Co384      Co  0.25225486  0.24336334  0.71145542     1.51600
Co385      Co  0.25233065  0.24334347  0.79168743     1.51500
O386        O  0.24697521  0.25780202  0.75157778    -1.41600
C387        C  0.20773099  0.28993343  0.80856057     1.09900
C388        C  0.30017995  0.28621658  0.70524675     1.10000
C389        C  0.20763353  0.28997533  0.69468561     1.10000
C390        C  0.30026476  0.28619423  0.79782026     1.09900
C391        C  0.38648192  0.37644100  0.88747560     0.86900
C392        C  0.40804346  0.39898143  0.87063730    -0.53300
C393        C  0.42564019  0.41748296  0.88851624     0.09900
C394        C  0.41983592  0.41165549  0.92168110     0.20800
C395        C  0.40647136  0.35659836  0.90816330    -0.54000
C396        C  0.42393804  0.37523680  0.92630404     0.10000
C397        C  0.36848334  0.39844147  0.90792503    -0.53600
C398        C  0.38603183  0.41681725  0.92604417     0.10500
H399        H  0.40919410  0.40034190  0.84678165     0.15100
H400        H  0.43412972  0.42685230  0.93629124     0.00800
H401        H  0.40689676  0.33048914  0.90834617     0.15400
H402        H  0.34422479  0.39935135  0.90814351     0.15100
C403        C  0.38753423  0.12115511  0.88927116     0.86900
C404        C  0.37031323  0.09853161  0.91016138    -0.53300
C405        C  0.38830580  0.08009711  0.92706945     0.09900
C406        C  0.42201568  0.08608860  0.92150739     0.20800
C407        C  0.40880229  0.14109424  0.90919706    -0.54000
C408        C  0.42709580  0.12256030  0.92611722     0.10000
C409        C  0.40802486  0.09920300  0.87114116    -0.53600
C410        C  0.42622037  0.08079371  0.88816105     0.10500
H411        H  0.34606398  0.09699236  0.91133267     0.15100
H412        H  0.43668321  0.07093567  0.93536338     0.00800
H413        H  0.40916071  0.16720065  0.91006257     0.15400
H414        H  0.40816468  0.09830485  0.84725082     0.15100
C415        C  0.11634219  0.37900576  0.89021308     0.86900
C416        C  0.13346194  0.40258515  0.91032518    -0.53300
C417        C  0.11528282  0.42174166  0.92640771     0.09900
C418        C  0.08164869  0.41540585  0.92083696     0.20800
C419        C  0.09509014  0.35998046  0.91067731    -0.54000
C420        C  0.07680830  0.37915030  0.92679587     0.10000
C421        C  0.09593307  0.40007728  0.87108348    -0.53600
C422        C  0.07760683  0.41922238  0.88727171     0.10500
H423        H  0.15768911  0.40379347  0.91199104     0.15100
H424        H  0.06682976  0.43103708  0.93406351     0.00800
H425        H  0.09454510  0.33390990  0.91230819     0.15400
H426        H  0.09610597  0.40005058  0.84718010     0.15100
C427        C  0.11764502  0.12428896  0.88739684     0.86900
C428        C  0.09651662  0.10081942  0.87121671    -0.53300
C429        C  0.07930176  0.08253415  0.88955962     0.09900
C430        C  0.08491528  0.08940327  0.92250915     0.20800
C431        C  0.09716233  0.14433775  0.90757080    -0.54000
C432        C  0.07984866  0.12584792  0.92610264     0.10000
C433        C  0.13604654  0.10326821  0.90838381    -0.53600
C434        C  0.11887416  0.08496404  0.92689964     0.10500
H435        H  0.09516213  0.09888400  0.84739997     0.15100
H436        H  0.07090335  0.07427711  0.93743752     0.00800
H437        H  0.09641156  0.17042647  0.90721826     0.15400
H438        H  0.16031490  0.10254713  0.90832003     0.15100
N439        N  0.00215327  0.45055635  0.87913676    -0.36200
N440        N  0.04757984  0.00049683  0.87567654    -0.56700
N441        N  0.00250876  0.04932724  0.88013709    -0.36200
N442        N  0.45704467  0.99971176  0.87610811    -0.56700
C443        C  0.02610221  0.43311863  0.87127684     0.27400
C444        C  0.47762945  0.43251785  0.87283314     0.27400
C445        C  0.02697975  0.06811456  0.87581876     0.27400
C446        C  0.47848274  0.06767448  0.87463380     0.27400
C447        C  0.06531893  0.47491257  0.87170978     0.36000
C448        C  0.06559608  0.02672624  0.87364469     0.36000
C449        C  0.43909035  0.47357302  0.87299272     0.36000
C450        C  0.43948194  0.02543422  0.87200357     0.36000
C451        C  0.01678196  0.40440998  0.85875756    -0.21400
C452        C  0.48593545  0.40403762  0.85971588    -0.21400
C453        C  0.01853938  0.09832379  0.86665273    -0.21400
C454        C  0.48772545  0.09804535  0.86592115    -0.21400
C455        C  0.09384833  0.48488185  0.86429382    -0.22500
C456        C  0.09400931  0.01793646  0.86543881    -0.22500
C457        C  0.41097655  0.48253362  0.86403248    -0.22500
C458        C  0.41123831  0.01561887  0.86337799    -0.22500
C459        C  0.05610913  0.44267733  0.87482331    -0.17800
C460        C  0.44797087  0.44173601  0.87765350    -0.17800
C461        C  0.44844410  0.05757846  0.87666758    -0.17800
C462        C  0.05672817  0.05844929  0.87918971    -0.17800
H463        H  0.03078587  0.38610700  0.84927273     0.15100
H464        H  0.47124637  0.38547074  0.85093556     0.15100
H465        H  0.03314779  0.11799525  0.86001681     0.15100
H466        H  0.47367291  0.11746180  0.85867474     0.15100
H467        H  0.11218077  0.46980672  0.85775433     0.13300
H468        H  0.11249004  0.03383249  0.85984537     0.13300
H469        H  0.39267919  0.46676086  0.85760149     0.13300
H470        H  0.39310640  0.03081785  0.85654384     0.13300
H471        H  0.00253868  0.47165672  0.89142137     0.26600
H472        H  0.00224630  0.02674623  0.88983600     0.26600
C473        C  0.38634299  0.37645013  0.61552130     0.86900
C474        C  0.36834552  0.39845012  0.59506476    -0.53300
C475        C  0.38589611  0.41683860  0.57695620     0.09900
C476        C  0.41970020  0.41168646  0.58133302     0.20800
C477        C  0.40634847  0.35662074  0.59484292    -0.54000
C478        C  0.42381775  0.37527046  0.57671090     0.10000
C479        C  0.40789004  0.39899307  0.63237019    -0.53600
C480        C  0.42548721  0.41750655  0.61450038     0.10500
H481        H  0.34408655  0.39934827  0.59483219     0.15100
H482        H  0.43399559  0.42689314  0.56673089     0.00800
H483        H  0.40678870  0.33051206  0.59466588     0.15400
H484        H  0.40902900  0.40034906  0.65622644     0.15100
C485        C  0.11618066  0.37903080  0.61307049     0.86900
C486        C  0.09574716  0.40010792  0.63216417    -0.53300
C487        C  0.07744173  0.41924919  0.61594267     0.09900
C488        C  0.08152579  0.41542015  0.58238479     0.20800
C489        C  0.09495660  0.35999814  0.59258632    -0.54000
C490        C  0.07669597  0.37916373  0.57643433     0.10000
C491        C  0.13332507  0.40260265  0.59297129    -0.53600
C492        C  0.11516573  0.42175079  0.57685630     0.10500
H493        H  0.09589090  0.40008891  0.65606770     0.15100
H494        H  0.06672487  0.43104780  0.56913042     0.00800
H495        H  0.09441663  0.33392727  0.59096439     0.15400
H496        H  0.15755450  0.40381415  0.59133822     0.15100
N497        N  0.04577004  0.36870402  0.50159354    -0.36200
N498        N  0.00005466  0.36278271  0.54631695    -0.56700
N499        N  0.45418342  0.36468755  0.50152911    -0.36200
N500        N  0.00012515  0.36274958  0.95680817    -0.56700
C501        C  0.06275563  0.36265365  0.52548582     0.27400
C502        C  0.06279280  0.36265193  0.97773018     0.27400
C503        C  0.43710711  0.35849530  0.52549928     0.27400
C504        C  0.43714529  0.35847176  0.97753811     0.27400
C505        C  0.02422582  0.36264535  0.56414745     0.36000
C506        C  0.47595547  0.36036780  0.56414206     0.36000
C507        C  0.02432137  0.36261146  0.93901229     0.36000
C508        C  0.47605060  0.36031215  0.93895100     0.36000
C509        C  0.09039262  0.35171713  0.51679426    -0.21400
C510        C  0.09041620  0.35171631  0.98646798    -0.21400
C511        C  0.40926474  0.34730358  0.51670708    -0.21400
C512        C  0.40928838  0.34728998  0.98629623    -0.21400
C513        C  0.01560497  0.35707782  0.59283755    -0.22500
C514        C  0.48488314  0.35566854  0.59285003    -0.22500
C515        C  0.01574232  0.35701829  0.91031444    -0.22500
C516        C  0.48501945  0.35559538  0.91025944    -0.22500
C517        C  0.05402619  0.36704753  0.55489364    -0.17800
C518        C  0.05410670  0.36703682  0.94830760    -0.17800
C519        C  0.44606969  0.36282423  0.94800031    -0.17800
C520        C  0.44598680  0.36287091  0.55504740    -0.17800
H521        H  0.10835226  0.34383913  0.53088517     0.15100
H522        H  0.10839683  0.34383572  0.97240747     0.15100
H523        H  0.39115901  0.33921576  0.53080451     0.15100
H524        H  0.39120473  0.33918983  0.97217731     0.15100
H525        H  0.03013469  0.35319603  0.61146566     0.13300
H526        H  0.47060680  0.35069494  0.61155117     0.13300
H527        H  0.03029915  0.35313203  0.89170969     0.13300
H528        H  0.47077001  0.35060732  0.89154123     0.13300
H529        H  0.02539504  0.38039404  0.50157538     0.26600
H530        H  0.47475186  0.37659224  0.50153884     0.26600
C531        C  0.11748830  0.12431035  0.61587787     0.86900
C532        C  0.13589731  0.10327571  0.59491348    -0.53300
C533        C  0.11873301  0.08497831  0.57638675     0.09900
C534        C  0.08477335  0.08943542  0.58074643     0.20800
C535        C  0.09703194  0.14436631  0.59567685    -0.54000
C536        C  0.07972593  0.12588088  0.57713622     0.10000
C537        C  0.09633367  0.10085389  0.63204632    -0.53600
C538        C  0.07912612  0.08257536  0.61369227     0.10500
H539        H  0.16016511  0.10254273  0.59499847     0.15100
H540        H  0.07076799  0.07431425  0.56580987     0.00800
H541        H  0.09629464  0.17045580  0.59601634     0.15400
H542        H  0.09495923  0.09892032  0.65586230     0.15100
N543        N  0.00197961  0.45059138  0.62396094    -0.36200
N544        N  0.04739357  0.00053305  0.62749299    -0.56700
N545        N  0.00232159  0.04937125  0.62300530    -0.36200
N546        N  0.45685853  0.99975078  0.62694030    -0.56700
C547        C  0.02591751  0.43315530  0.63186285     0.27400
C548        C  0.47744910  0.43255860  0.63025053     0.27400
C549        C  0.02678601  0.06815435  0.62737273     0.27400
C550        C  0.47828645  0.06771325  0.62847948     0.27400
C551        C  0.06513270  0.47494447  0.63147895     0.36000
C552        C  0.06540118  0.02676361  0.62957937     0.36000
C553        C  0.43890262  0.47360465  0.63000963     0.36000
C554        C  0.43928288  0.02546824  0.63101257     0.36000
C555        C  0.01658178  0.40445735  0.64439634    -0.21400
C556        C  0.48573772  0.40408763  0.64340264    -0.21400
C557        C  0.01833088  0.09835522  0.63654220    -0.21400
C558        C  0.48751544  0.09807593  0.63722474    -0.21400
C559        C  0.09364520  0.48491128  0.63895934    -0.22500
C560        C  0.09379992  0.01797057  0.63783527    -0.22500
C561        C  0.41076841  0.48255617  0.63890983    -0.22500
C562        C  0.41102103  0.01564419  0.63957022    -0.22500
C563        C  0.05592811  0.44271018  0.62835045    -0.17800
C564        C  0.44779810  0.44176979  0.62537602    -0.17800
C565        C  0.44825091  0.05761801  0.62638705    -0.17800
C566        C  0.05653999  0.05849165  0.62404156    -0.17800
H567        H  0.03057367  0.38615965  0.65391224     0.15100
H568        H  0.47103774  0.38552662  0.65217849     0.15100
H569        H  0.03292903  0.11802189  0.64320893     0.15100
H570        H  0.47345140  0.11748665  0.64445726     0.15100
H571        H  0.11196605  0.46983375  0.64553054     0.13300
H572        H  0.11226759  0.03386424  0.64347479     0.13300
H573        H  0.39246202  0.46677669  0.64530345     0.13300
H574        H  0.39287474  0.03083708  0.64637336     0.13300
H575        H  0.00237983  0.47168612  0.61166285     0.26600
H576        H  0.00207553  0.02679860  0.61329404     0.26600
N577        N  0.12408751  0.45430913  0.50163630    -0.36200
N578        N  0.12981389  0.00348329  0.95714764    -0.56700
N579        N  0.12770772  0.05310205  0.50164694    -0.36200
N580        N  0.12970149  0.00349561  0.54614691    -0.56700
C581        C  0.12898799  0.43578015  0.97780675     0.27400
C582        C  0.12895174  0.43578494  0.52547975     0.27400
C583        C  0.13507682  0.07086836  0.97779275     0.27400
C584        C  0.13500882  0.07087616  0.52551409     0.27400
C585        C  0.13226428  0.47746488  0.93962648     0.36000
C586        C  0.13432480  0.02929775  0.93963425     0.36000
C587        C  0.13214366  0.47747061  0.56366281     0.36000
C588        C  0.13417255  0.02930436  0.56367191     0.36000
C589        C  0.13790531  0.40557349  0.98650134    -0.21400
C590        C  0.13788191  0.40557632  0.51680972    -0.21400
C591        C  0.14830959  0.09957245  0.98647239    -0.21400
C592        C  0.14826691  0.09957697  0.51685759    -0.21400
C593        C  0.14136659  0.48661792  0.91183076    -0.22500
C594        C  0.14262086  0.01969982  0.91181762    -0.22500
C595        C  0.14119933  0.48661630  0.59147412    -0.22500
C596        C  0.14243500  0.01970076  0.59149878    -0.22500
C597        C  0.12625571  0.44561875  0.94842463    -0.17800
C598        C  0.12616686  0.44562577  0.55485390    -0.17800
C599        C  0.13072640  0.06138612  0.55486020    -0.17800
C600        C  0.13085993  0.06137830  0.94843969    -0.17800
H601        H  0.14482373  0.38606957  0.97242239     0.15100
H602        H  0.14477817  0.38607437  0.53090644     0.15100
H603        H  0.15776797  0.11805556  0.97234037     0.15100
H604        H  0.15769088  0.11806160  0.53100648     0.15100
H605        H  0.14740193  0.47095446  0.89387050     0.13300
H606        H  0.14975122  0.03502891  0.89383223     0.13300
H607        H  0.14721902  0.47094833  0.60944020     0.13300
H608        H  0.14953685  0.03502590  0.60949485     0.13300
H609        H  0.11432596  0.47682306  0.50162598     0.26600
H610        H  0.11501858  0.03191957  0.50163203     0.26600
N611        N  0.00350153  0.13522790  0.54673480    -0.36200
N612        N  0.04909359  0.14074393  0.50159350    -0.56700
N613        N  0.00358102  0.13519798  0.95638690    -0.36200
N614        N  0.45792424  0.13763132  0.50152507    -0.56700
C615        C  0.02776806  0.14200228  0.56355742     0.27400
C616        C  0.47903666  0.14041861  0.56351270     0.27400
C617        C  0.02787276  0.14197858  0.93960208     0.27400
C618        C  0.47914301  0.14040510  0.93957312     0.27400
C619        C  0.06720539  0.14189035  0.52545346     0.36000
C620        C  0.06724731  0.14186752  0.97776394     0.36000
C621        C  0.43977251  0.13836835  0.52530392     0.36000
C622        C  0.43981451  0.13835518  0.97771345     0.36000
C623        C  0.01866333  0.15256791  0.59090962    -0.21400
C624        C  0.48778527  0.15157853  0.59087417    -0.21400
C625        C  0.01881137  0.15256710  0.91224046    -0.21400
C626        C  0.48793330  0.15158303  0.91222886    -0.21400
C627        C  0.09644212  0.14685357  0.51677563    -0.22500
C628        C  0.09646894  0.14683841  0.98648705    -0.22200
C629        C  0.41056181  0.14256819  0.51660522    -0.22500
C630        C  0.41058842  0.14255909  0.98635685    -0.22500
C631        C  0.05786785  0.13839975  0.55499515    -0.17800
C632        C  0.44905917  0.13523837  0.55479742    -0.17800
C633        C  0.44915401  0.13521770  0.94823857    -0.17800
C634        C  0.05795734  0.13836484  0.94820956    -0.17800
H635        H  0.03284995  0.16082396  0.60874818     0.15100
H636        H  0.47334178  0.15898325  0.60865045     0.15100
H637        H  0.03302553  0.16083289  0.89442611     0.15100
H638        H  0.47351733  0.15900071  0.89443269     0.15100
H639        H  0.11546972  0.15116200  0.53097588     0.13300
H640        H  0.11551992  0.15113719  0.97231555     0.13300
H641        H  0.39151385  0.14640119  0.53074057     0.13300
H642        H  0.39156567  0.14638538  0.97218466     0.13300
H643        H  0.00368712  0.12362849  0.52649925     0.26600
H644        H  0.00373262  0.12358417  0.97661919     0.26600
C645        C  0.38734920  0.12119025  0.61368262     0.86900
C646        C  0.40863962  0.14112480  0.59377123    -0.53300
C647        C  0.42695771  0.12258734  0.57688416     0.09900
C648        C  0.42187382  0.08611664  0.58150523     0.20800
C649        C  0.37015552  0.09855459  0.59278308    -0.54000
C650        C  0.38817008  0.08011439  0.57590664     0.10000
C651        C  0.40782439  0.09924719  0.63184733    -0.53600
C652        C  0.42604340  0.08083580  0.61485836     0.10500
H653        H  0.40900005  0.16723105  0.59289685     0.15100
H654        H  0.43655971  0.07096122  0.56767505     0.00800
H655        H  0.34590787  0.09701367  0.59158162     0.15400
H656        H  0.40793549  0.09835477  0.65573819     0.15100
N657        N  0.37953164  0.04727017  0.50148694    -0.36200
N658        N  0.37411598  0.49796411  0.54607521    -0.56700
N659        N  0.37646633  0.44875183  0.50149367    -0.36200
N660        N  0.37422974  0.49795211  0.95689928    -0.56700
C661        C  0.37224714  0.06490202  0.52526201     0.27400
C662        C  0.37229000  0.06489336  0.97768918     0.27400
C663        C  0.37134331  0.43018762  0.52542391     0.27400
C664        C  0.37140591  0.43018124  0.97755800     0.27400
C665        C  0.37204145  0.02392465  0.56368997     0.36000
C666        C  0.37029106  0.47211869  0.56367099     0.36000
C667        C  0.37218642  0.02390969  0.93927227     0.36000
C668        C  0.37045078  0.47210805  0.93929821     0.36000
C669        C  0.35903111  0.09318666  0.51662050    -0.21400
C670        C  0.35905775  0.09318100  0.98629192    -0.21400
C671        C  0.36203120  0.39983675  0.51668070    -0.21400
C672        C  0.36206855  0.39983370  0.98629133    -0.21400
C673        C  0.36389601  0.01475903  0.59174169    -0.22500
C674        C  0.36280481  0.48167751  0.59174952    -0.22500
C675        C  0.36410967  0.01474338  0.91120333    -0.22500
C676        C  0.36302448  0.48166615  0.91120189    -0.22500
C677        C  0.37685874  0.05576540  0.55451611    -0.17800
C678        C  0.37696577  0.05575158  0.94844860    -0.17800
C679        C  0.37451526  0.44008762  0.94807098    -0.17800
C680        C  0.37438370  0.44009847  0.55491381    -0.17800
H681        H  0.34968045  0.11143061  0.53073470     0.15100
H682        H  0.34973344  0.11142062  0.97215123     0.15100
H683        H  0.35491981  0.38020848  0.53079897     0.15100
H684        H  0.35499010  0.38020287  0.97216432     0.15100
H685        H  0.35819883  0.03040009  0.60982663     0.13300
H686        H  0.35637605  0.46631532  0.60995097     0.13300
H687        H  0.35844368  0.03038379  0.89310463     0.13300
H688        H  0.35663328  0.46630373  0.89299123     0.13300
H689        H  0.39211492  0.02640492  0.50150400     0.26600
H690        H  0.38658038  0.47136955  0.50150397     0.26600
C691        C  0.36750971  0.35711689  0.86763624    -0.18100
C692        C  0.35182506  0.34240186  0.85054769     0.06000
C693        C  0.33350547  0.32498932  0.83061858     0.07900
C694        C  0.31807019  0.30862905  0.81458496    -0.18900
C695        C  0.36696759  0.14020155  0.87137644    -0.18100
C696        C  0.34772387  0.15379164  0.85778237     0.06000
C697        C  0.32444316  0.16915651  0.84244730     0.07900
C698        C  0.30563664  0.18366226  0.82907459    -0.18900
C699        C  0.19169169  0.30842447  0.82972441    -0.18100
C700        C  0.17527460  0.32400063  0.84489923     0.06000
C701        C  0.15438698  0.34239241  0.86053634     0.07900
C702        C  0.13654832  0.35855857  0.87345480    -0.18900
C703        C  0.31795582  0.30865364  0.68845217    -0.18100
C704        C  0.33337587  0.32500742  0.67239728     0.06000
C705        C  0.35168699  0.34240822  0.65245057     0.07900
C706        C  0.36736975  0.35711777  0.63535498    -0.18900
C707        C  0.13630774  0.14280876  0.86656266    -0.18100
C708        C  0.15162017  0.15517165  0.84764812     0.06000
C709        C  0.16935605  0.16922855  0.82509653     0.07900
C710        C  0.18413867  0.18368069  0.80702760    -0.18900
C711        C  0.13637320  0.35859478  0.62985725    -0.18100
C712        C  0.15422348  0.34244371  0.64277785     0.06000
C713        C  0.17513338  0.32406553  0.65840015     0.07900
C714        C  0.19156991  0.30848720  0.67355424    -0.18900
C715        C  0.30549182  0.18371145  0.67393445    -0.18100
C716        C  0.32427061  0.16920977  0.66052011     0.06000
C717        C  0.34752566  0.15383890  0.64515002     0.07900
C718        C  0.36676177  0.14024238  0.63155079    -0.18900
C719        C  0.13614707  0.14282584  0.63672054    -0.18100
C720        C  0.15146642  0.15519199  0.65562882     0.06000
C721        C  0.16922172  0.16925735  0.67816335     0.07900
C722        C  0.18402778  0.18371167  0.69621297    -0.18900
O723        O  0.18774381  0.73200655  0.22185497    -0.79700
O724        O  0.28671471  0.70237976  0.28380864    -0.79700
O725        O  0.26947735  0.72391698  0.17777363    -0.79700
O726        O  0.22822267  0.70342193  0.28514791    -0.79700
O727        O  0.28666243  0.70239901  0.21925011    -0.79800
O728        O  0.18780167  0.73198633  0.28139527    -0.79700
O729        O  0.26962124  0.72387421  0.32532782    -0.79700
O730        O  0.22815587  0.70344084  0.21802380    -0.79700
C731        C  0.20046017  0.70642018  0.21405487     1.10000
C732        C  0.28657767  0.70421690  0.31227582     1.09900
C733        C  0.28646565  0.70425418  0.19078318     1.10000
C734        C  0.20053460  0.70639712  0.28916420     1.09900
O735        O  0.20711490  0.79845065  0.28191825    -0.79700
O736        O  0.31235291  0.76686284  0.22243067    -0.79800
O737        O  0.22015072  0.76401980  0.18725328    -0.79700
O738        O  0.27277836  0.78406676  0.30175058    -0.79700
O739        O  0.31240499  0.76684608  0.28061335    -0.79700
O740        O  0.20706199  0.79847325  0.22133277    -0.79700
O741        O  0.22026916  0.76397570  0.31596093    -0.79700
O742        O  0.27268675  0.78409290  0.20136733    -0.79700
Co743      Co  0.20093525  0.76504475  0.25162175     1.51500
Co744      Co  0.29322301  0.73692812  0.25153219     1.51700
Co745      Co  0.25225474  0.74336184  0.21145613     1.51600
Co746      Co  0.25232957  0.74334072  0.29168713     1.51500
O747        O  0.24697521  0.75780277  0.25157811    -1.41600
C748        C  0.20772871  0.78992774  0.30855975     1.09900
C749        C  0.30017611  0.78622251  0.20524311     1.10000
C750        C  0.20763196  0.78997076  0.19468686     1.10000
C751        C  0.30026018  0.78619917  0.29782549     1.09900
C752        C  0.38648931  0.87644016  0.38747869     0.86900
C753        C  0.40805426  0.89897369  0.37063638    -0.53300
C754        C  0.42565545  0.91747430  0.38851226     0.09900
C755        C  0.41985349  0.91165141  0.42167786     0.20800
C756        C  0.40647606  0.85659537  0.40816745    -0.54000
C757        C  0.42394803  0.87523191  0.42630503     0.10000
C758        C  0.36849737  0.89844829  0.40792686    -0.53600
C759        C  0.38605142  0.91682305  0.42604174     0.10500
H760        H  0.40920143  0.90033299  0.34678055     0.15100
H761        H  0.43415140  0.92684677  0.43628543     0.00800
H762        H  0.40689624  0.83048597  0.40835290     0.15400
H763        H  0.34423910  0.89936330  0.40814823     0.15100
C764        C  0.38751745  0.62114774  0.38927603     0.86900
C765        C  0.37030061  0.59852086  0.41016591    -0.53300
C766        C  0.38829656  0.58008939  0.42707287     0.09900
C767        C  0.42200557  0.58608730  0.42151041     0.20800
C768        C  0.40878281  0.64109057  0.40920158    -0.54000
C769        C  0.42708000  0.62255979  0.42612077     0.10000
C770        C  0.40801086  0.59920023  0.37114488    -0.53600
C771        C  0.42621000  0.58079434  0.38816377     0.10500
H772        H  0.34605155  0.59697707  0.41133783     0.15100
H773        H  0.43667589  0.57093666  0.43536562     0.00800
H774        H  0.40913714  0.66719697  0.41006720     0.15400
H775        H  0.40814946  0.59830202  0.34725453     0.15100
C776        C  0.11635119  0.87900309  0.39021588     0.86900
C777        C  0.13347190  0.90258334  0.41032618    -0.53300
C778        C  0.11529336  0.92174015  0.42640893     0.09900
C779        C  0.08165896  0.91540392  0.42083965     0.20800
C780        C  0.09510061  0.85997833  0.41068139    -0.54000
C781        C  0.07681933  0.87914856  0.42679966     0.10000
C782        C  0.09594117  0.90007314  0.37108621    -0.53600
C783        C  0.07761548  0.91921859  0.38727437     0.10500
H784        H  0.15769913  0.90379134  0.41199138     0.15100
H785        H  0.06684036  0.93103541  0.43406627     0.00800
H786        H  0.09455525  0.83390777  0.41231249     0.15400
H787        H  0.09611334  0.90004550  0.34718281     0.15100
C788        C  0.11763193  0.62429584  0.38739601     0.86900
C789        C  0.09650519  0.60082522  0.37121511    -0.53300
C790        C  0.07929045  0.58253886  0.38955718     0.09900
C791        C  0.08490171  0.58940833  0.42250700     0.20800
C792        C  0.09714706  0.64434358  0.40756958    -0.54000
C793        C  0.07983331  0.62585275  0.42610112     0.10000
C794        C  0.13603304  0.60327558  0.40838404    -0.53600
C795        C  0.11886040  0.58497031  0.42689895     0.10500
H796        H  0.09515172  0.59888988  0.34739830     0.15100
H797        H  0.07088970  0.57428122  0.43743450     0.00800
H798        H  0.09639539  0.67043225  0.40721727     0.15400
H799        H  0.16030142  0.60255512  0.40832113     0.15100
N800        N  0.00216293  0.95055169  0.37913387    -0.36200
N801        N  0.04756938  0.50050131  0.37567211    -0.56700
N802        N  0.00249850  0.54933161  0.38013788    -0.36200
N803        N  0.45703582  0.49971626  0.37610647    -0.56700
C804        C  0.02611262  0.93311568  0.37127306     0.27400
C805        C  0.47764101  0.93251450  0.37282402     0.27400
C806        C  0.02696895  0.56811908  0.37581803     0.27400
C807        C  0.47847293  0.56767896  0.37463662     0.27400
C808        C  0.06532870  0.97490907  0.37171556     0.36000
C809        C  0.06558526  0.52673098  0.37363912     0.36000
C810        C  0.43909986  0.97356778  0.37299366     0.36000
C811        C  0.43947361  0.52543850  0.37200000     0.36000
C812        C  0.01679395  0.90441021  0.35874652    -0.21400
C813        C  0.48594840  0.90403734  0.35970190    -0.21400
C814        C  0.01852782  0.59832856  0.36665337    -0.21400
C815        C  0.48771472  0.59805011  0.36592419    -0.21400
C816        C  0.09385865  0.98487837  0.36430220    -0.22500
C817        C  0.09399787  0.51794132  0.36543098    -0.22500
C818        C  0.41098512  0.98252834  0.36403651    -0.22500
C819        C  0.41123046  0.51562345  0.36337256    -0.22500
C820        C  0.05611873  0.94267388  0.37482547    -0.17800
C821        C  0.44798239  0.94172981  0.37764687    -0.17800
C822        C  0.44843473  0.55758187  0.37666864    -0.17800
C823        C  0.05671751  0.55845386  0.37918629    -0.17800
H824        H  0.03079898  0.88610908  0.34926026     0.15100
H825        H  0.47126028  0.88547150  0.35091815     0.15100
H826        H  0.03313566  0.61800021  0.36001667     0.15100
H827        H  0.47366152  0.61746624  0.35867834     0.15100
H828        H  0.11219134  0.96980336  0.35776323     0.13300
H829        H  0.11247837  0.53383743  0.35983690     0.13300
H830        H  0.39268810  0.96675538  0.35760493     0.13300
H831        H  0.39309873  0.53082248  0.35653806     0.13300
H832        H  0.00254697  0.97164880  0.39142288     0.26600
H833        H  0.00223678  0.52675037  0.38983622     0.26600
C834        C  0.38634666  0.87645160  0.11551644     0.86900
C835        C  0.36835555  0.89845908  0.09506116    -0.53300
C836        C  0.38591151  0.91684684  0.07695689     0.09900
C837        C  0.41971364  0.91168543  0.08133474     0.20800
C838        C  0.40634989  0.85662053  0.09483694    -0.54000
C839        C  0.42382427  0.87526878  0.07670825     0.10000
C840        C  0.40789678  0.89898795  0.13236947    -0.53600
C841        C  0.42549825  0.91750078  0.11450284     0.10500
H842        H  0.34409684  0.89936182  0.09482556     0.15100
H843        H  0.43401302  0.92689101  0.06673535     0.00800
H844        H  0.40678553  0.83051169  0.09465741     0.15400
H845        H  0.40903229  0.90034261  0.15622592     0.15100
C846        C  0.11618724  0.87902956  0.11307135     0.86900
C847        C  0.09575197  0.90010484  0.13216458    -0.53300
C848        C  0.07744797  0.91924700  0.11594262     0.09900
C849        C  0.08153545  0.91542088  0.08238483     0.20800
C850        C  0.09496547  0.85999829  0.09258442    -0.54000
C851        C  0.07670635  0.87916493  0.07643224     0.10000
C852        C  0.13333382  0.90260267  0.09297534    -0.53600
C853        C  0.11517607  0.92175174  0.07685970     0.10500
H854        H  0.09589382  0.90008440  0.15606813     0.15100
H855        H  0.06673568  0.93104934  0.06912999     0.00800
H856        H  0.09442478  0.83392745  0.09096191     0.15400
H857        H  0.15756340  0.90381343  0.09134386     0.15100
N858        N  0.04577954  0.86870283  0.00159411    -0.36200
N859        N  0.00006409  0.86278158  0.04631698    -0.56700
N860        N  0.45419295  0.86468000  0.00152884    -0.36200
N861        N  0.00013510  0.86274387  0.45680829    -0.56700
C862        C  0.06276382  0.86264956  0.02548646     0.27400
C863        C  0.06280084  0.86264600  0.47773114     0.27400
C864        C  0.43711811  0.85848245  0.02549910     0.27400
C865        C  0.43715799  0.85845667  0.47753718     0.27400
C866        C  0.02423499  0.86265184  0.06414800     0.36000
C867        C  0.47596414  0.86037247  0.06414286     0.36000
C868        C  0.02433143  0.86261290  0.43901241     0.36000
C869        C  0.47606191  0.86031169  0.43894996     0.36000
C870        C  0.09039866  0.85170599  0.01679586    -0.21400
C871        C  0.09042211  0.85170452  0.48646921    -0.21400
C872        C  0.40927960  0.84727901  0.01670682    -0.21400
C873        C  0.40930482  0.84726333  0.48629519    -0.21400
C874        C  0.01561426  0.85709442  0.09283963    -0.22500
C875        C  0.48489175  0.85568449  0.09285237    -0.22500
C876        C  0.01575320  0.85702889  0.41031297    -0.22500
C877        C  0.48503134  0.85560509  0.41025719    -0.22500
C878        C  0.05403537  0.86704928  0.05489331    -0.17800
C879        C  0.05411641  0.86703483  0.44830913    -0.17800
C880        C  0.44608065  0.86281668  0.44799962    -0.17800
C881        C  0.44599526  0.86286718  0.05504704    -0.17800
H882        H  0.10835689  0.84382537  0.03088723     0.15100
H883        H  0.10840172  0.84382063  0.47240902     0.15100
H884        H  0.39117539  0.83918691  0.03080419     0.15100
H885        H  0.39122312  0.83915796  0.47217622     0.15100
H886        H  0.03014421  0.85321804  0.11146850     0.13300
H887        H  0.47061537  0.85071567  0.11155447     0.13300
H888        H  0.03031073  0.85314780  0.39170786     0.13300
H889        H  0.47078226  0.85062169  0.39153774     0.13300
H890        H  0.02540672  0.88039753  0.00157527     0.26600
H891        H  0.47475744  0.87659346  0.00153837     0.26600
C892        C  0.11747979  0.62431473  0.11587723     0.86900
C893        C  0.13588753  0.60328076  0.09491090    -0.53300
C894        C  0.11872209  0.58498266  0.07638553     0.09900
C895        C  0.08476283  0.58943855  0.08074805     0.20800
C896        C  0.09702065  0.64436993  0.09567757    -0.54000
C897        C  0.07971382  0.62588387  0.07713769     0.10000
C898        C  0.09632739  0.60085707  0.13204703    -0.53600
C899        C  0.07911921  0.58257765  0.11369436     0.10500
H900        H  0.16015534  0.60254821  0.09499411     0.15100
H901        H  0.07075675  0.57431671  0.06581268     0.00800
H902        H  0.09628279  0.67045938  0.09601692     0.15400
H903        H  0.09495485  0.59892337  0.15586311     0.15100
N904        N  0.00198693  0.95058867  0.12396389    -0.36200
N905        N  0.04738747  0.50053524  0.12749718    -0.56700
N906        N  0.00231577  0.54937368  0.12300628    -0.36200
N907        N  0.45685226  0.49975354  0.12694287    -0.56700
C908        C  0.02592520  0.93315471  0.13186832     0.27400
C909        C  0.47745622  0.93255781  0.13025965     0.27400
C910        C  0.02677989  0.56815688  0.12737432     0.27400
C911        C  0.47827983  0.56771597  0.12847882     0.27400
C912        C  0.06514009  0.97494273  0.13147416     0.36000
C913        C  0.06539476  0.52676598  0.12958532     0.36000
C914        C  0.43890825  0.97360230  0.13000640     0.36000
C915        C  0.43927756  0.52547089  0.13101844     0.36000
C916        C  0.01659043  0.90446071  0.14441019    -0.21400
C917        C  0.48574544  0.90409069  0.14341859    -0.21400
C918        C  0.01832441  0.59835820  0.13654218    -0.21400
C919        C  0.48750831  0.59807895  0.13722336    -0.21400
C920        C  0.09365320  0.98490942  0.13895190    -0.22500
C921        C  0.09379273  0.51797271  0.13784373    -0.22500
C922        C  0.41077303  0.98255421  0.13890281    -0.22500
C923        C  0.41101662  0.51564723  0.13957938    -0.22500
C924        C  0.05593517  0.94270852  0.12835027    -0.17800
C925        C  0.44780547  0.94176632  0.12538125    -0.17800
C926        C  0.44824461  0.55761982  0.12638859    -0.17800
C927        C  0.05653389  0.55849396  0.12404539    -0.17800
H928        H  0.03058301  0.88616518  0.15392869     0.15100
H929        H  0.47104595  0.88553135  0.15219824     0.15100
H930        H  0.03292234  0.61802501  0.14320910     0.15100
H931        H  0.47344387  0.61748950  0.14445552     0.15100
H932        H  0.11197401  0.96983195  0.14552326     0.13300
H933        H  0.11226028  0.53386627  0.14348412     0.13300
H934        H  0.39246677  0.96677482  0.14529704     0.13300
H935        H  0.39287103  0.53084029  0.14638409     0.13300
H936        H  0.00238635  0.97168000  0.11166028     0.26600
H937        H  0.00207010  0.52680077  0.11329598     0.26600
N938        N  0.12409981  0.95430705  0.00163869    -0.36200
N939        N  0.12979772  0.50348727  0.45714559    -0.56700
N940        N  0.12769940  0.55310480  0.00164549    -0.36200
N941        N  0.12968471  0.50349800  0.04614545    -0.56700
C942        C  0.12899585  0.93577666  0.47780889     0.27400
C943        C  0.12896058  0.93578219  0.02548242     0.27400
C944        C  0.13506389  0.57087275  0.47779160     0.27400
C945        C  0.13499787  0.57087955  0.02551288     0.27400
C946        C  0.13228001  0.97746117  0.43962879     0.36000
C947        C  0.13430754  0.52930228  0.43963235     0.36000
C948        C  0.13216173  0.97746852  0.06366456     0.36000
C949        C  0.13415551  0.52930682  0.06367066     0.36000
C950        C  0.13790676  0.90556785  0.48650379    -0.21400
C951        C  0.13788379  0.90557103  0.01681272    -0.21400
C952        C  0.14829226  0.59957900  0.48647167    -0.21400
C953        C  0.14825195  0.59958264  0.01685662    -0.21400
C954        C  0.14138392  0.98661377  0.41183334    -0.22500
C955        C  0.14260235  0.51970475  0.41181532    -0.22500
C956        C  0.14121837  0.98661433  0.09147567    -0.22500
C957        C  0.14241654  0.51970290  0.09149774    -0.22500
C958        C  0.12626719  0.94561583  0.44842651    -0.17800
C959        C  0.12617958  0.94562447  0.05485661    -0.17800
C960        C  0.13071371  0.56138939  0.05485884    -0.17800
C961        C  0.13084551  0.56138328  0.44843848    -0.17800
H962        H  0.14482165  0.88606232  0.47242499     0.15100
H963        H  0.14477660  0.88606786  0.03090970     0.15100
H964        H  0.15774725  0.61806428  0.47233988     0.15100
H965        H  0.15767278  0.61806889  0.03100569     0.15100
H966        H  0.14741888  0.97095013  0.39387305     0.13300
H967        H  0.14973284  0.53503423  0.39383028     0.13300
H968        H  0.14723673  0.97094655  0.10944236     0.13300
H969        H  0.14951927  0.53502787  0.10949357     0.13300
H970        H  0.11434317  0.97682335  0.00162825     0.26600
H971        H  0.11501179  0.53192112  0.00163031     0.26600
N972        N  0.00348793  0.63522843  0.04673611    -0.36200
N973        N  0.04907927  0.64074415  0.00159373    -0.56700
N974        N  0.00356443  0.63519905  0.45638746    -0.36200
N975        N  0.45790938  0.63763899  0.00152658    -0.56700
C976        C  0.02775459  0.64200319  0.06355858     0.27400
C977        C  0.47902243  0.64042052  0.06351393     0.27400
C978        C  0.02785586  0.64198006  0.43960225     0.27400
C979        C  0.47912673  0.64040743  0.43957457     0.27400
C980        C  0.06719123  0.64189285  0.02545381     0.36000
C981        C  0.06723078  0.64187079  0.47776399     0.36000
C982        C  0.43975780  0.63837450  0.02530561     0.36000
C983        C  0.43979881  0.63836089  0.47771552     0.36000
C984        C  0.01864985  0.65257035  0.09091030    -0.21400
C985        C  0.48777114  0.65158134  0.09087500    -0.21400
C986        C  0.01879362  0.65257002  0.41224130    -0.21400
C987        C  0.48791630  0.65158660  0.41223058    -0.21400
C988        C  0.09642726  0.64685991  0.01677541    -0.22500
C989        C  0.09645186  0.64684579  0.48648700    -0.22200
C990        C  0.41054669  0.64257302  0.01660734    -0.22500
C991        C  0.41057254  0.64256287  0.48635933    -0.22500
C992        C  0.05785454  0.63840151  0.05499611    -0.17800
C993        C  0.44904484  0.63524122  0.05479866    -0.17800
C994        C  0.44913785  0.63522085  0.44824076    -0.17800
C995        C  0.05794099  0.63836776  0.44820914    -0.17800
H996        H  0.03283644  0.66082751  0.10874847     0.15100
H997        H  0.47332765  0.65898739  0.10865082     0.15100
H998        H  0.03300723  0.66083710  0.39442702     0.15100
H999        H  0.47349981  0.65900571  0.39443531     0.15100
H1000       H  0.11545462  0.65117079  0.03097538     0.13300
H1001       H  0.11550220  0.65114742  0.47231536     0.13300
H1002       H  0.39149842  0.64640351  0.03074290     0.13300
H1003       H  0.39154905  0.64638673  0.47218753     0.13300
H1004       H  0.00367312  0.62362874  0.02650055     0.26600
H1005       H  0.00371621  0.62358488  0.47662014     0.26600
C1006       C  0.38733551  0.62118200  0.11368221     0.86900
C1007       C  0.40862302  0.64112034  0.09377105    -0.53300
C1008       C  0.42694438  0.62258619  0.07688446     0.09900
C1009       C  0.42186609  0.58611465  0.08150574     0.20800
C1010       C  0.37014557  0.59854336  0.09278303    -0.54000
C1011       C  0.38816316  0.58010624  0.07590728     0.10000
C1012       C  0.40781360  0.59924307  0.13184755    -0.53600
C1013       C  0.42603591  0.58083519  0.11485903     0.10500
H1014       H  0.40897944  0.66722659  0.09289669     0.15100
H1015       H  0.43655443  0.57096161  0.06767589     0.00800
H1016       H  0.34589809  0.59699804  0.09158130     0.15400
H1017       H  0.40792381  0.59835024  0.15573841     0.15100
N1018       N  0.37952561  0.54725903  0.00148866    -0.36200
N1019       N  0.37413201  0.99797423  0.04607340    -0.56700
N1020       N  0.37649302  0.94876149  0.00149275    -0.36200
N1021       N  0.37424947  0.99796045  0.45689788    -0.56700
C1022       C  0.37224225  0.56489144  0.02526368     0.27400
C1023       C  0.37228420  0.56488242  0.47769189     0.27400
C1024       C  0.37137443  0.93019591  0.02542273     0.27400
C1025       C  0.37144010  0.93018812  0.47755690     0.27400
C1026       C  0.37203380  0.52391599  0.06369271     0.36000
C1027       C  0.37030710  0.97212811  0.06366856     0.36000
C1028       C  0.37217619  0.52390140  0.43927332     0.36000
C1029       C  0.37047102  0.97211534  0.43929777     0.36000
C1030       C  0.35902731  0.59317671  0.01662265    -0.21400
C1031       C  0.35905291  0.59317023  0.48629511    -0.21400
C1032       C  0.36207302  0.89984140  0.01667982    -0.21400
C1033       C  0.36211310  0.89983719  0.48629004    -0.21400
C1034       C  0.36389356  0.51475203  0.09174635    -0.22500
C1035       C  0.36281214  0.98168608  0.09174499    -0.22500
C1036       C  0.36410360  0.51473724  0.41120260    -0.22500
C1037       C  0.36303581  0.98167194  0.41120339    -0.22500
C1038       C  0.37685457  0.55575555  0.05451751    -0.17800
C1039       C  0.37695970  0.55574190  0.44845129    -0.17800
C1040       C  0.37454200  0.94009548  0.44806999    -0.17800
C1041       C  0.37440618  0.94010821  0.05491254    -0.17800
H1042       H  0.34967708  0.61142067  0.03073709     0.15100
H1043       H  0.34972826  0.61141001  0.47215487     0.15100
H1044       H  0.35496558  0.88021158  0.03079805     0.15100
H1045       H  0.35503934  0.88020449  0.47216308     0.15100
H1046       H  0.35820256  0.53039419  0.10983235     0.13300
H1047       H  0.35638103  0.96632309  0.10994507     0.13300
H1048       H  0.35844322  0.53037907  0.39310326     0.13300
H1049       H  0.35664242  0.96630833  0.39299432     0.13300
H1050       H  0.39210743  0.52639266  0.00150540     0.26600
H1051       H  0.38659900  0.97138335  0.00150301     0.26600
C1052       C  0.36751044  0.85711799  0.36764297    -0.18100
C1053       C  0.35182078  0.84240497  0.35055688     0.06000
C1054       C  0.33349773  0.82499430  0.33062859     0.07900
C1055       C  0.31806252  0.80863479  0.31459365    -0.18900
C1056       C  0.36694735  0.64018977  0.37138245    -0.18100
C1057       C  0.34770238  0.65377694  0.35778838     0.06000
C1058       C  0.32442392  0.66914214  0.34245158     0.07900
C1059       C  0.30562298  0.68365256  0.32907634    -0.18900
C1060       C  0.19169060  0.80841782  0.32972396    -0.18100
C1061       C  0.17527552  0.82399403  0.34489999     0.06000
C1062       C  0.15439128  0.84238720  0.36053854     0.07900
C1063       C  0.13655538  0.85855517  0.37345776    -0.18900
C1064       C  0.31794894  0.80866024  0.18844490    -0.18100
C1065       C  0.33336779  0.82501339  0.17238774     0.06000
C1066       C  0.35168061  0.84241266  0.15244047     0.07900
C1067       C  0.36736722  0.85712063  0.13534656    -0.18900
C1068       C  0.13629602  0.64281528  0.36656142    -0.18100
C1069       C  0.15161156  0.65517438  0.34764657     0.06000
C1070       C  0.16935270  0.66922600  0.32509522     0.07900
C1071       C  0.18413909  0.68367495  0.30702649    -0.18900
C1072       C  0.13637719  0.85859216  0.12985820    -0.18100
C1073       C  0.15422526  0.84243918  0.14277882     0.06000
C1074       C  0.17513297  0.82405971  0.15840122     0.07900
C1075       C  0.19156859  0.80848149  0.17355559    -0.18900
C1076       C  0.30548058  0.68370327  0.17393407    -0.18100
C1077       C  0.32425432  0.66919649  0.16051832     0.06000
C1078       C  0.34750751  0.65382423  0.14514796     0.07900
C1079       C  0.36674492  0.64022987  0.13154944    -0.18900
C1080       C  0.13614043  0.64282987  0.13671978    -0.18100
C1081       C  0.15146242  0.65519296  0.15562827     0.06000
C1082       C  0.16922168  0.66925418  0.17816292     0.07900
C1083       C  0.18403025  0.68370622  0.19621268    -0.18900
O1084       O  0.18774394  0.73200731  0.72185432    -0.79700
O1085       O  0.28671545  0.70238048  0.78380811    -0.79700
O1086       O  0.26947751  0.72391736  0.67777299    -0.79700
O1087       O  0.22822330  0.70342235  0.78514745    -0.79700
O1088       O  0.28666229  0.70239927  0.71924956    -0.79800
O1089       O  0.18780220  0.73198665  0.78139476    -0.79700
O1090       O  0.26962194  0.72387510  0.82532719    -0.79700
O1091       O  0.22815587  0.70344144  0.71802304    -0.79700
C1092       C  0.20046018  0.70642094  0.71405408     1.10000
C1093       C  0.28657844  0.70421781  0.81227527     1.09900
C1094       C  0.28646562  0.70425440  0.69078262     1.10000
C1095       C  0.20053522  0.70639748  0.78916373     1.09900
O1096       O  0.20711540  0.79845108  0.78191781    -0.79700
O1097       O  0.31235322  0.76686289  0.72242953    -0.79800
O1098       O  0.22015095  0.76402051  0.68725267    -0.79700
O1099       O  0.27277879  0.78406740  0.80174963    -0.79700
O1100       O  0.31240539  0.76684689  0.78061219    -0.79700
O1101       O  0.20706226  0.79847382  0.72133232    -0.79700
O1102       O  0.22026973  0.76397606  0.81596035    -0.79700
O1103       O  0.27268696  0.78409344  0.70136679    -0.79700
Co1104     Co  0.20093560  0.76504524  0.75162125     1.51500
Co1105     Co  0.29322336  0.73692857  0.75153136     1.51700
Co1106     Co  0.25225492  0.74336234  0.71145546     1.51600
Co1107     Co  0.25233011  0.74334126  0.79168645     1.51500
O1108       O  0.24697553  0.75780317  0.75157743    -1.41600
C1109       C  0.20772929  0.78992811  0.80855929     1.09900
C1110       C  0.30017638  0.78622279  0.70524225     1.10000
C1111       C  0.20763211  0.78997140  0.69468638     1.10000
C1112       C  0.30026057  0.78619994  0.79782439     1.09900
C1113       C  0.38648889  0.87643985  0.88747900     0.86900
C1114       C  0.40805386  0.89897340  0.87063677    -0.53300
C1115       C  0.42565507  0.91747391  0.88851268     0.09900
C1116       C  0.41985316  0.91165088  0.92167827     0.20800
C1117       C  0.40647563  0.85659489  0.90816766    -0.54000
C1118       C  0.42394765  0.87523131  0.92630531     0.10000
C1119       C  0.36849701  0.89844797  0.90792726    -0.53600
C1120       C  0.38605112  0.91682260  0.92604222     0.10500
H1121       H  0.40920101  0.90033279  0.84678093     0.15100
H1122       H  0.43415110  0.92684616  0.93628586     0.00800
H1123       H  0.40689578  0.83048549  0.90835298     0.15400
H1124       H  0.34423874  0.89936306  0.90814859     0.15100
C1125       C  0.38751788  0.62114854  0.88927585     0.86900
C1126       C  0.37030102  0.59852151  0.91016559    -0.53300
C1127       C  0.38829698  0.58008994  0.92707247     0.09900
C1128       C  0.42200600  0.58608795  0.92151012     0.20800
C1129       C  0.40878317  0.64109126  0.90920153    -0.54000
C1130       C  0.42708031  0.62256042  0.92612069     0.10000
C1131       C  0.40801134  0.59920114  0.87114463    -0.53600
C1132       C  0.42621048  0.58079520  0.88816347     0.10500
H1133       H  0.34605196  0.59697775  0.91133752     0.15100
H1134       H  0.43667633  0.57093726  0.93536528     0.00800
H1135       H  0.40913751  0.66719766  0.91006727     0.15400
H1136       H  0.40814987  0.59830290  0.84725427     0.15100
C1137       C  0.11635157  0.87900251  0.89021609     0.86900
C1138       C  0.13347201  0.90258299  0.91032641    -0.53300
C1139       C  0.11529322  0.92173965  0.92640904     0.09900
C1140       C  0.08165890  0.91540304  0.92083965     0.20800
C1141       C  0.09510108  0.85997759  0.91068159    -0.54000
C1142       C  0.07681959  0.87914767  0.92679978     0.10000
C1143       C  0.09594145  0.90007231  0.87108631    -0.53600
C1144       C  0.07761554  0.91921762  0.88727435     0.10500
H1145       H  0.15769922  0.90379120  0.91199174     0.15100
H1146       H  0.06684011  0.93103444  0.93406615     0.00800
H1147       H  0.09455591  0.83390703  0.91231272     0.15400
H1148       H  0.09611384  0.90004472  0.84718292     0.15100
C1149       C  0.11763303  0.62429593  0.88739575     0.86900
C1150       C  0.09650632  0.60082531  0.87121485    -0.53300
C1151       C  0.07929152  0.58253899  0.88955691     0.09900
C1152       C  0.08490271  0.58940856  0.92250675     0.20800
C1153       C  0.09714815  0.64434374  0.90756921    -0.54000
C1154       C  0.07983436  0.62585299  0.92610079     0.10000
C1155       C  0.13603407  0.60327566  0.90838385    -0.53600
C1156       C  0.11886137  0.58497048  0.92689878     0.10500
H1157       H  0.09515282  0.59889000  0.84739805     0.15100
H1158       H  0.07089062  0.57428155  0.93743428     0.00800
H1159       H  0.09639650  0.67043241  0.90721678     0.15400
H1160       H  0.16030244  0.60255507  0.90832094     0.15100
N1161       N  0.00216327  0.95055114  0.87913380    -0.36200
N1162       N  0.04757014  0.50050153  0.87567208    -0.56700
N1163       N  0.00249949  0.54933209  0.88013741    -0.36200
N1164       N  0.45703577  0.49971689  0.87610651    -0.56700
C1165       C  0.02611283  0.93311509  0.87127287     0.27400
C1166       C  0.47764053  0.93251392  0.87282413     0.27400
C1167       C  0.02697004  0.56811947  0.87581751     0.27400
C1168       C  0.47847326  0.56767941  0.87463600     0.27400
C1169       C  0.06532915  0.97490816  0.87171532     0.36000
C1170       C  0.06558611  0.52673111  0.87363885     0.36000
C1171       C  0.43909963  0.97356737  0.87299408     0.36000
C1172       C  0.43947371  0.52543921  0.87199991     0.36000
C1173       C  0.01679402  0.90440965  0.85874634    -0.21400
C1174       C  0.48594767  0.90403688  0.85970168    -0.21400
C1175       C  0.01852908  0.59832889  0.86665248    -0.21400
C1176       C  0.48771524  0.59805038  0.86592326    -0.21400
C1177       C  0.09385915  0.98487728  0.86430192    -0.22500
C1178       C  0.09399864  0.51794125  0.86543057    -0.22500
C1179       C  0.41098506  0.98252799  0.86403645    -0.22500
C1180       C  0.41123051  0.51562430  0.86337256    -0.22500
C1181       C  0.05611899  0.94267303  0.87482532    -0.17800
C1182       C  0.44798204  0.94172938  0.87764731    -0.17800
C1183       C  0.44843503  0.55758256  0.87666828    -0.17800
C1184       C  0.05671853  0.55845407  0.87918594    -0.17800
H1185       H  0.03079893  0.88610847  0.84926002     0.15100
H1186       H  0.47125942  0.88547117  0.85091789     0.15100
H1187       H  0.03313705  0.61800038  0.86001562     0.15100
H1188       H  0.47366217  0.61746654  0.85867723     0.15100
H1189       H  0.11219176  0.96980218  0.85776294     0.13300
H1190       H  0.11247917  0.53383724  0.85983634     0.13300
H1191       H  0.39268813  0.96675506  0.85760456     0.13300
H1192       H  0.39309889  0.53082342  0.85653794     0.13300
H1193       H  0.00254746  0.97164845  0.89142296     0.26600
H1194       H  0.00223764  0.52675105  0.88983591     0.26600
C1195       C  0.38634722  0.87645192  0.61551622     0.86900
C1196       C  0.36835599  0.89845912  0.59506083    -0.53300
C1197       C  0.38591187  0.91684683  0.57695646     0.09900
C1198       C  0.41971404  0.91168565  0.58133432     0.20800
C1199       C  0.40635050  0.85662075  0.59483687    -0.54000
C1200       C  0.42382478  0.87526896  0.57670807     0.10000
C1201       C  0.40789718  0.89898852  0.63236914    -0.53600
C1202       C  0.42549861  0.91750127  0.61450240     0.10500
H1203       H  0.34409726  0.89936173  0.59482525     0.15100
H1204       H  0.43401334  0.92689117  0.56673480     0.00800
H1205       H  0.40678617  0.83051191  0.59465745     0.15400
H1206       H  0.40903265  0.90034338  0.65622558     0.15100
C1207       C  0.11618686  0.87903003  0.61307129     0.86900
C1208       C  0.09575181  0.90010571  0.63216438    -0.53300
C1209       C  0.07744789  0.91924780  0.61594226     0.09900
C1210       C  0.08153530  0.91542135  0.58238452     0.20800
C1211       C  0.09496491  0.85999872  0.59258457    -0.54000
C1212       C  0.07670591  0.87916536  0.57643226     0.10000
C1213       C  0.13333357  0.90260277  0.59297502    -0.53600
C1214       C  0.11517594  0.92175186  0.57685927     0.10500
H1215       H  0.09589366  0.90008541  0.65606793     0.15100
H1216       H  0.06673558  0.93104980  0.56912962     0.00800
H1217       H  0.09442405  0.83392787  0.59096224     0.15400
H1218       H  0.15756315  0.90381335  0.59134350     0.15100
N1219       N  0.04577915  0.86870350  0.50159406    -0.36200
N1220       N  0.00006376  0.86278176  0.54631686    -0.56700
N1221       N  0.45419316  0.86468080  0.50152864    -0.36200
N1222       N  0.00013541  0.86274278  0.95680842    -0.56700
C1223       C  0.06276354  0.86265037  0.52548639     0.27400
C1224       C  0.06280109  0.86264492  0.97773121     0.27400
C1225       C  0.43711839  0.85848288  0.52549887     0.27400
C1226       C  0.43715775  0.85845583  0.97753740     0.27400
C1227       C  0.02423465  0.86265186  0.56414790     0.36000
C1228       C  0.47596445  0.86037208  0.56414260     0.36000
C1229       C  0.02433172  0.86261191  0.93901250     0.36000
C1230       C  0.47606156  0.86031085  0.93895008     0.36000
C1231       C  0.09039853  0.85170736  0.51679574    -0.21400
C1232       C  0.09042222  0.85170299  0.98646932    -0.21400
C1233       C  0.40927993  0.84727935  0.51670657    -0.21400
C1234       C  0.40930452  0.84726275  0.98629545    -0.21400
C1235       C  0.01561393  0.85709387  0.59283945    -0.22500
C1236       C  0.48489201  0.85568344  0.59285205    -0.22500
C1237       C  0.01575342  0.85702826  0.91031302    -0.22500
C1238       C  0.48503092  0.85560473  0.91025721    -0.22500
C1239       C  0.05403500  0.86704971  0.55489325    -0.17800
C1240       C  0.05411671  0.86703378  0.94830920    -0.17800
C1241       C  0.44608033  0.86281589  0.94799981    -0.17800
C1242       C  0.44599562  0.86286727  0.55504681    -0.17800
H1243       H  0.10835685  0.84382688  0.53088708     0.15100
H1244       H  0.10840171  0.84381876  0.97240915     0.15100
H1245       H  0.39117580  0.83918701  0.53080394     0.15100
H1246       H  0.39122278  0.83915747  0.97217650     0.15100
H1247       H  0.03014387  0.85321726  0.61146829     0.13300
H1248       H  0.47061561  0.85071442  0.61155410     0.13300
H1249       H  0.03031089  0.85314742  0.89170782     0.13300
H1250       H  0.47078179  0.85062164  0.89153773     0.13300
H1251       H  0.02540629  0.88039780  0.50157527     0.26600
H1252       H  0.47475758  0.87659439  0.50153828     0.26600
C1253       C  0.11747902  0.62431428  0.61587758     0.86900
C1254       C  0.13588681  0.60328045  0.59491118    -0.53300
C1255       C  0.11872145  0.58498224  0.57638583     0.09900
C1256       C  0.08476218  0.58943787  0.58074846     0.20800
C1257       C  0.09701974  0.64436935  0.59567793    -0.54000
C1258       C  0.07971294  0.62588316  0.57713811     0.10000
C1259       C  0.09632673  0.60085649  0.63204742    -0.53600
C1260       C  0.07911862  0.58257691  0.61369478     0.10500
H1261       H  0.16015462  0.60254812  0.59499431     0.15100
H1262       H  0.07075620  0.57431593  0.56581311     0.00800
H1263       H  0.09628182  0.67045880  0.59601722     0.15400
H1264       H  0.09495415  0.59892285  0.65586349     0.15100
N1265       N  0.00198665  0.95058937  0.62396337    -0.36200
N1266       N  0.04738699  0.50053438  0.62749761    -0.56700
N1267       N  0.00231516  0.54937271  0.62300649    -0.36200
N1268       N  0.45685253  0.49975236  0.62694263    -0.56700
C1269       C  0.02592498  0.93315532  0.63186751     0.27400
C1270       C  0.47745662  0.93255833  0.63025886     0.27400
C1271       C  0.02677923  0.56815598  0.62737465     0.27400
C1272       C  0.47827973  0.56771487  0.62847897     0.27400
C1273       C  0.06513981  0.97494354  0.63147373     0.36000
C1274       C  0.06539425  0.52676516  0.62958573     0.36000
C1275       C  0.43890855  0.97360275  0.63000635     0.36000
C1276       C  0.43927772  0.52546956  0.63101848     0.36000
C1277       C  0.01659030  0.90446112  0.64440907    -0.21400
C1278       C  0.48574597  0.90409098  0.64341722    -0.21400
C1279       C  0.01832360  0.59835728  0.63654244    -0.21400
C1280       C  0.48750801  0.59807788  0.63722358    -0.21400
C1281       C  0.09365295  0.98491027  0.63895136    -0.22500
C1282       C  0.09379229  0.51797190  0.63784389    -0.22500
C1283       C  0.41077305  0.98255452  0.63890198    -0.22500
C1284       C  0.41101695  0.51564569  0.63957976    -0.22500
C1285       C  0.05593495  0.94270931  0.62834967    -0.17800
C1286       C  0.44780583  0.94176686  0.62538076    -0.17800
C1287       C  0.44824455  0.55761857  0.62638869    -0.17800
C1288       C  0.05653331  0.55849315  0.62404584    -0.17800
H1289       H  0.03058292  0.88616554  0.65392737     0.15100
H1290       H  0.47104655  0.88553149  0.65219672     0.15100
H1291       H  0.03292143  0.61802415  0.64320941     0.15100
H1292       H  0.47344341  0.61748831  0.64445570     0.15100
H1293       H  0.11197387  0.96983285  0.64552246     0.13300
H1294       H  0.11225985  0.53386547  0.64348421     0.13300
H1295       H  0.39246661  0.96677501  0.64529546     0.13300
H1296       H  0.39287135  0.53083859  0.64638471     0.13300
H1297       H  0.00238596  0.97168082  0.61166011     0.26600
H1298       H  0.00206961  0.52679979  0.61329621     0.26600
N1299       N  0.12410010  0.95430728  0.50163842    -0.36200
N1300       N  0.12979849  0.50348741  0.95714561    -0.56700
N1301       N  0.12769872  0.55310452  0.50164565    -0.36200
N1302       N  0.12968423  0.50349775  0.54614543    -0.56700
C1303       C  0.12899521  0.93577622  0.97780917     0.27400
C1304       C  0.12896098  0.93578243  0.52548210     0.27400
C1305       C  0.13506464  0.57087287  0.97779146     0.27400
C1306       C  0.13499732  0.57087937  0.52551308     0.27400
C1307       C  0.13228002  0.97746060  0.93962896     0.36000
C1308       C  0.13430827  0.52930235  0.93963228     0.36000
C1309       C  0.13216140  0.97746869  0.56366428     0.36000
C1310       C  0.13415502  0.52930652  0.56367073     0.36000
C1311       C  0.13790575  0.90556731  0.98650416    -0.21400
C1312       C  0.13788467  0.90557144  0.51681234    -0.21400
C1313       C  0.14829299  0.59957916  0.98647150    -0.21400
C1314       C  0.14825138  0.59958243  0.51685681    -0.21400
C1315       C  0.14138403  0.98661304  0.91183348    -0.22500
C1316       C  0.14260292  0.51970471  0.91181523    -0.22500
C1317       C  0.14121827  0.98661448  0.59147533    -0.22500
C1318       C  0.14241615  0.51970252  0.59149777    -0.22500
C1319       C  0.12626675  0.94561538  0.94842673    -0.17800
C1320       C  0.12617961  0.94562460  0.55485627    -0.17800
C1321       C  0.13071317  0.56138909  0.55485902    -0.17800
C1322       C  0.13084636  0.56138341  0.94843833    -0.17800
H1323       H  0.14482045  0.88606165  0.97242543     0.15100
H1324       H  0.14477763  0.88606828  0.53090926     0.15100
H1325       H  0.15774808  0.61806440  0.97233973     0.15100
H1326       H  0.15767227  0.61806868  0.53100585     0.15100
H1327       H  0.14741873  0.97094929  0.89387321     0.13300
H1328       H  0.14973335  0.53503408  0.89383009     0.13300
H1329       H  0.14723699  0.97094668  0.60944189     0.13300
H1330       H  0.14951888  0.53502747  0.60949360     0.13300
H1331       H  0.11434310  0.97682347  0.50162800     0.26600
H1332       H  0.11501137  0.53192120  0.50163047     0.26600
N1333       N  0.00348697  0.63522737  0.54673650    -0.36200
N1334       N  0.04907826  0.64074331  0.50159410    -0.56700
N1335       N  0.00356545  0.63519949  0.95638718    -0.36200
N1336       N  0.45790901  0.63763816  0.50152676    -0.56700
C1337       C  0.02775362  0.64200220  0.56355895     0.27400
C1338       C  0.47902201  0.64041935  0.56351409     0.27400
C1339       C  0.02785690  0.64198024  0.93960176     0.27400
C1340       C  0.47912709  0.64040768  0.93957435     0.27400
C1341       C  0.06719024  0.64189188  0.52545417     0.36000
C1342       C  0.06723181  0.64187142  0.97776361     0.36000
C1343       C  0.43975739  0.63837313  0.52530578     0.36000
C1344       C  0.43979921  0.63836198  0.97771533     0.36000
C1345       C  0.01864889  0.65256942  0.59091064    -0.21400
C1346       C  0.48777064  0.65158026  0.59087515    -0.21400
C1347       C  0.01879466  0.65256975  0.91224073    -0.21400
C1348       C  0.48791668  0.65158633  0.91223018    -0.21400
C1349       C  0.09642625  0.64685906  0.51677579    -0.22500
C1350       C  0.09645290  0.64684642  0.98648662    -0.22200
C1351       C  0.41054622  0.64257104  0.51660753    -0.22500
C1352       C  0.41057302  0.64256468  0.98635913    -0.22500
C1353       C  0.05785358  0.63840060  0.55499649    -0.17800
C1354       C  0.44904445  0.63523991  0.55479883    -0.17800
C1355       C  0.44913820  0.63522146  0.94824062    -0.17800
C1356       C  0.05794203  0.63836813  0.94820877    -0.17800
H1357       H  0.03283549  0.66082672  0.60874874     0.15100
H1358       H  0.47332709  0.65898631  0.60865092     0.15100
H1359       H  0.03300827  0.66083660  0.89442637     0.15100
H1360       H  0.47350019  0.65900523  0.89443484     0.15100
H1361       H  0.11545361  0.65116996  0.53097575     0.13300
H1362       H  0.11550328  0.65114788  0.97231498     0.13300
H1363       H  0.39149789  0.64640111  0.53074310     0.13300
H1364       H  0.39154959  0.64638878  0.97218728     0.13300
H1365       H  0.00367213  0.62362776  0.52650096     0.26600
H1366       H  0.00371720  0.62358597  0.97661955     0.26600
C1367       C  0.38733528  0.62118078  0.61368249     0.86900
C1368       C  0.40862282  0.64111906  0.59377133    -0.53300
C1369       C  0.42694406  0.62258486  0.57688467     0.09900
C1370       C  0.42186571  0.58611332  0.58150591     0.20800
C1371       C  0.37014525  0.59854221  0.59278332    -0.54000
C1372       C  0.38816273  0.58010505  0.57590752     0.10000
C1373       C  0.40781340  0.59924178  0.63184777    -0.53600
C1374       C  0.42603565  0.58083385  0.61485920     0.10500
H1375       H  0.40897936  0.66722532  0.59289704     0.15100
H1376       H  0.43655397  0.57096026  0.56767601     0.00800
H1377       H  0.34589776  0.59699697  0.59158162     0.15400
H1378       H  0.40792371  0.59834899  0.65573863     0.15100
N1379       N  0.37952493  0.54725814  0.50148889    -0.36200
N1380       N  0.37413273  0.99797414  0.54607325    -0.56700
N1381       N  0.37649352  0.94876151  0.50149236    -0.36200
N1382       N  0.37424911  0.99796028  0.95689800    -0.56700
C1383       C  0.37224136  0.56489039  0.52526397     0.27400
C1384       C  0.37228501  0.56488328  0.97769161     0.27400
C1385       C  0.37137483  0.93019582  0.52542228     0.27400
C1386       C  0.37143979  0.93018803  0.97755735     0.27400
C1387       C  0.37203377  0.52391478  0.56369285     0.36000
C1388       C  0.37030722  0.97212793  0.56366818     0.36000
C1389       C  0.37217608  0.52390208  0.93927310     0.36000
C1390       C  0.37047092  0.97211503  0.93929799     0.36000
C1391       C  0.35902606  0.59317549  0.51662303    -0.21400
C1392       C  0.35905410  0.59317134  0.98629475    -0.21400
C1393       C  0.36207332  0.89984143  0.51667926    -0.21400
C1394       C  0.36211291  0.89983704  0.98629059    -0.21400
C1395       C  0.36389397  0.51475055  0.59174655    -0.22500
C1396       C  0.36281156  0.98168575  0.59174448    -0.22500
C1397       C  0.36410346  0.51473788  0.91120238    -0.22500
C1398       C  0.36303610  0.98167142  0.91120348    -0.22500
C1399       C  0.37685398  0.55575444  0.55451775    -0.17800
C1400       C  0.37696012  0.55574256  0.94845098    -0.17800
C1401       C  0.37454181  0.94009522  0.94807040    -0.17800
C1402       C  0.37440646  0.94010810  0.55491211    -0.17800
H1403       H  0.34967569  0.61141933  0.53073749     0.15100
H1404       H  0.34972955  0.61141113  0.97215446     0.15100
H1405       H  0.35496580  0.88021155  0.53079741     0.15100
H1406       H  0.35503932  0.88020425  0.97216365     0.15100
H1407       H  0.35820301  0.53039255  0.60983268     0.13300
H1408       H  0.35638000  0.96632271  0.60994438     0.13300
H1409       H  0.35844337  0.53037968  0.89310292     0.13300
H1410       H  0.35664296  0.96630770  0.89299440     0.13300
H1411       H  0.39210700  0.52639213  0.50150555     0.26600
H1412       H  0.38659944  0.97138306  0.50150272     0.26600
C1413       C  0.36751006  0.85711786  0.86764312    -0.18100
C1414       C  0.35182062  0.84240512  0.85055666     0.06000
C1415       C  0.33349786  0.82499484  0.83062786     0.07900
C1416       C  0.31806285  0.80863552  0.81459260    -0.18900
C1417       C  0.36694783  0.64019069  0.87138233    -0.18100
C1418       C  0.34770301  0.65377802  0.85778817     0.06000
C1419       C  0.32442475  0.66914333  0.84245121     0.07900
C1420       C  0.30562381  0.68365365  0.82907588    -0.18900
C1421       C  0.19169134  0.80841816  0.82972365    -0.18100
C1422       C  0.17527632  0.82399418  0.84489994     0.06000
C1423       C  0.15439202  0.84238707  0.86053871     0.07900
C1424       C  0.13655599  0.85855479  0.87345802    -0.18900
C1425       C  0.31794918  0.80866046  0.68844403    -0.18100
C1426       C  0.33336814  0.82501371  0.67238708     0.06000
C1427       C  0.35168118  0.84241304  0.65244015     0.07900
C1428       C  0.36736789  0.85712101  0.63534638    -0.18900
C1429       C  0.13629710  0.64281535  0.86656116    -0.18100
C1430       C  0.15161259  0.65517451  0.84764631     0.06000
C1431       C  0.16935361  0.66922621  0.82509491     0.07900
C1432       C  0.18413978  0.68367527  0.80702607    -0.18900
C1433       C  0.13637664  0.85859259  0.62985827    -0.18100
C1434       C  0.15422471  0.84243959  0.64277886     0.06000
C1435       C  0.17513264  0.82406026  0.65840111     0.07900
C1436       C  0.19156849  0.80848211  0.67355527    -0.18900
C1437       C  0.30548051  0.68370331  0.67393364    -0.18100
C1438       C  0.32425423  0.66919614  0.66051821     0.06000
C1439       C  0.34750738  0.65382341  0.64514813     0.07900
C1440       C  0.36674474  0.64022879  0.63154972    -0.18900
C1441       C  0.13613973  0.64282958  0.63672001    -0.18100
C1442       C  0.15146186  0.65519306  0.65562822     0.06000
C1443       C  0.16922134  0.66925478  0.67816247     0.07900
C1444       C  0.18403010  0.68370704  0.69621195    -0.18900
O1445       O  0.68774275  0.23201173  0.22185538    -0.79700
O1446       O  0.78670846  0.20237479  0.28380927    -0.79700
O1447       O  0.76948015  0.22391784  0.17777314    -0.79700
O1448       O  0.72822213  0.20342643  0.28515171    -0.79700
O1449       O  0.78665566  0.20239295  0.21924964    -0.79800
O1450       O  0.68780177  0.23199199  0.28139644    -0.79700
O1451       O  0.76962651  0.22387828  0.32532826    -0.79700
O1452       O  0.72815364  0.20344412  0.21802140    -0.79700
C1453       C  0.70045802  0.20642503  0.21405440     1.10000
C1454       C  0.78658125  0.20421916  0.31227598     1.09900
C1455       C  0.78646760  0.20425415  0.19078305     1.10000
C1456       C  0.70053420  0.20640280  0.28916642     1.09900
O1457       O  0.70711732  0.29845545  0.28191861    -0.79700
O1458       O  0.81235417  0.26685112  0.22243033    -0.79800
O1459       O  0.72015203  0.26402412  0.18725181    -0.79700
O1460       O  0.77278246  0.28406920  0.30174447    -0.79700
O1461       O  0.81240679  0.26683512  0.28061228    -0.79700
O1462       O  0.70706350  0.29847718  0.22133192    -0.79700
O1463       O  0.72027201  0.26398197  0.31596247    -0.79700
O1464       O  0.77269010  0.28409305  0.20137127    -0.79700
Co1465     Co  0.70093597  0.26504910  0.25162201     1.51500
Co1466     Co  0.79322093  0.23691998  0.25153184     1.51700
Co1467     Co  0.75225467  0.24336317  0.21145548     1.51600
Co1468     Co  0.75233069  0.24334378  0.29168754     1.51500
O1469       O  0.74697521  0.25780209  0.25157782    -1.41600
C1470       C  0.70773113  0.28993377  0.30856059     1.09900
C1471       C  0.80017986  0.28621643  0.20524656     1.10000
C1472       C  0.70763326  0.28997524  0.19468567     1.10000
C1473       C  0.80026467  0.28619471  0.29782004     1.09900
C1474       C  0.88648190  0.37644061  0.38747569     0.86900
C1475       C  0.90804351  0.39898077  0.37063724    -0.53300
C1476       C  0.92564039  0.41748227  0.38851605     0.09900
C1477       C  0.91983623  0.41165493  0.42168096     0.20800
C1478       C  0.90647124  0.35659789  0.40816339    -0.54000
C1479       C  0.92393808  0.37523622  0.42630404     0.10000
C1480       C  0.86848353  0.39844132  0.40792506    -0.53600
C1481       C  0.88603221  0.41681702  0.42604407     0.10500
H1482       H  0.90919401  0.40034121  0.34678159     0.15100
H1483       H  0.93413015  0.42685167  0.43629104     0.00800
H1484       H  0.90689649  0.33048866  0.40834629     0.15400
H1485       H  0.84422499  0.39935137  0.40814367     0.15100
C1486       C  0.88753369  0.12115543  0.38927160     0.86900
C1487       C  0.87031283  0.09853195  0.41016199    -0.53300
C1488       C  0.88830554  0.08009750  0.42706997     0.09900
C1489       C  0.92201539  0.08608907  0.42150774     0.20800
C1490       C  0.90880183  0.14109468  0.40919733    -0.54000
C1491       C  0.92709542  0.12256081  0.42611748     0.10000
C1492       C  0.90802424  0.09920332  0.37114151    -0.53600
C1493       C  0.92621985  0.08079410  0.38816136     0.10500
H1494       H  0.84606358  0.09699265  0.41133344     0.15100
H1495       H  0.93668305  0.07093620  0.43536366     0.00800
H1496       H  0.90916019  0.16720110  0.41006278     0.15400
H1497       H  0.90816394  0.09830510  0.34725116     0.15100
C1498       C  0.61634248  0.37900584  0.39021315     0.86900
C1499       C  0.63346209  0.40258525  0.41032534    -0.53300
C1500       C  0.61528283  0.42174162  0.42640786     0.09900
C1501       C  0.58164875  0.41540562  0.42083701     0.20800
C1502       C  0.59509052  0.35998035  0.41067731    -0.54000
C1503       C  0.57680857  0.37915002  0.42679586     0.10000
C1504       C  0.59593329  0.40007725  0.37108355    -0.53600
C1505       C  0.57760695  0.41922223  0.38727176     0.10500
H1506       H  0.65768924  0.40379368  0.41199126     0.15100
H1507       H  0.56682971  0.43103675  0.43406354     0.00800
H1508       H  0.59454563  0.33390979  0.41230816     0.15400
H1509       H  0.59610627  0.40005057  0.34718017     0.15100
C1510       C  0.61764488  0.12428961  0.38739713     0.86900
C1511       C  0.59651635  0.10082032  0.37121686    -0.53300
C1512       C  0.57930129  0.08253515  0.38955969     0.09900
C1513       C  0.58491476  0.08940408  0.42250924     0.20800
C1514       C  0.59716227  0.14433854  0.40757108    -0.54000
C1515       C  0.57984843  0.12584880  0.42610282     0.10000
C1516       C  0.63604616  0.10326856  0.40838407    -0.53600
C1517       C  0.61887358  0.08496445  0.42689978     0.10500
H1518       H  0.59516203  0.09888495  0.34740010     0.15100
H1519       H  0.57090266  0.07427796  0.43743751     0.00800
H1520       H  0.59641161  0.17042727  0.40721852     0.15400
H1521       H  0.66031452  0.10254730  0.40832039     0.15100
N1522       N  0.50215331  0.45055588  0.37913631    -0.36200
N1523       N  0.54757977  0.00049764  0.37567680    -0.56700
N1524       N  0.50250849  0.04932784  0.38013684    -0.36200
N1525       N  0.95704432  0.99971226  0.37610788    -0.56700
C1526       C  0.52610238  0.43311832  0.37127649     0.27400
C1527       C  0.97762936  0.43251748  0.37283233     0.27400
C1528       C  0.52697940  0.06811531  0.37581868     0.27400
C1529       C  0.97848214  0.06767510  0.37463400     0.27400
C1530       C  0.56531888  0.47491246  0.37171003     0.36000
C1531       C  0.56559589  0.02672715  0.37364495     0.36000
C1532       C  0.93909005  0.47357245  0.37299278     0.36000
C1533       C  0.93948146  0.02543468  0.37200361     0.36000
C1534       C  0.51678238  0.40440967  0.35875700    -0.21400
C1535       C  0.98593550  0.40403744  0.35971481    -0.21400
C1536       C  0.51853893  0.09832453  0.36665270    -0.21400
C1537       C  0.98772467  0.09804608  0.36592160    -0.21400
C1538       C  0.59384827  0.48488190  0.36429424    -0.22500
C1539       C  0.59400919  0.01793753  0.36543922    -0.22500
C1540       C  0.91097616  0.48253296  0.36403267    -0.22500
C1541       C  0.91123776  0.01561926  0.36337830    -0.22500
C1542       C  0.55610921  0.44267716  0.37482331    -0.17800
C1543       C  0.94797079  0.44173544  0.37765311    -0.17800
C1544       C  0.94844355  0.05757893  0.37666779    -0.17800
C1545       C  0.55672783  0.05845018  0.37918977    -0.17800
H1546       H  0.53078646  0.38610680  0.34927222     0.15100
H1547       H  0.97124655  0.38547048  0.35093442     0.15100
H1548       H  0.53314727  0.11799612  0.36001694     0.15100
H1549       H  0.97367203  0.11746256  0.35867545     0.15100
H1550       H  0.61218079  0.46980688  0.35775478     0.13300
H1551       H  0.61248985  0.03383365  0.35984580     0.13300
H1552       H  0.89267887  0.46676015  0.35760161     0.13300
H1553       H  0.89310570  0.03081815  0.35654443     0.13300
H1554       H  0.50253854  0.47165622  0.39142108     0.26600
H1555       H  0.50224608  0.02674682  0.38983579     0.26600
C1556       C  0.88634290  0.37645117  0.11552183     0.86900
C1557       C  0.86834523  0.39845101  0.09506532    -0.53300
C1558       C  0.88589566  0.41683952  0.07695663     0.09900
C1559       C  0.91969981  0.41168763  0.08133338     0.20800
C1560       C  0.90634844  0.35662184  0.09484343    -0.54000
C1561       C  0.92381756  0.37527164  0.07671133     0.10000
C1562       C  0.90788987  0.39899433  0.13237062    -0.53600
C1563       C  0.92548693  0.41750783  0.11450070     0.10500
H1564       H  0.84408625  0.39934903  0.09483288     0.15100
H1565       H  0.93399509  0.42689434  0.06673116     0.00800
H1566       H  0.90678881  0.33051315  0.09466645     0.15400
H1567       H  0.90902892  0.40035035  0.15622687     0.15100
C1568       C  0.61618014  0.37903117  0.11307098     0.86900
C1569       C  0.59574671  0.40010854  0.13216453    -0.53300
C1570       C  0.57744145  0.41924988  0.11594289     0.09900
C1571       C  0.58152561  0.41542071  0.08238503     0.20800
C1572       C  0.59495599  0.35999865  0.09258681    -0.54000
C1573       C  0.57669555  0.37916432  0.07643471     0.10000
C1574       C  0.63332480  0.40260282  0.09297173    -0.53600
C1575       C  0.61516562  0.42175106  0.07685663     0.10500
H1576       H  0.59589033  0.40008959  0.15606807     0.15100
H1577       H  0.56672483  0.43104844  0.06913058     0.00800
H1578       H  0.59441582  0.33392777  0.09096497     0.15400
H1579       H  0.65755424  0.40381417  0.09133876     0.15100
N1580       N  0.54576972  0.36870457  0.00159389    -0.36200
N1581       N  0.50005423  0.36278380  0.04631728    -0.56700
N1582       N  0.95418310  0.36468877  0.00152942    -0.36200
N1583       N  0.50012549  0.36274866  0.45680793    -0.56700
C1584       C  0.56275524  0.36265425  0.02548624     0.27400
C1585       C  0.56279306  0.36265119  0.47773002     0.27400
C1586       C  0.93710684  0.35849667  0.02549962     0.27400
C1587       C  0.93714555  0.35847066  0.47753795     0.27400
C1588       C  0.52422534  0.36264621  0.06414782     0.36000
C1589       C  0.97595522  0.36036879  0.06414236     0.36000
C1590       C  0.52432171  0.36261090  0.43901208     0.36000
C1591       C  0.97605075  0.36031178  0.43895076     0.36000
C1592       C  0.59039220  0.35171758  0.01679477    -0.21400
C1593       C  0.59041651  0.35171567  0.48646786    -0.21400
C1594       C  0.90926439  0.34730512  0.01670749    -0.21400
C1595       C  0.90928874  0.34728861  0.48629607    -0.21400
C1596       C  0.51560437  0.35707868  0.09283790    -0.22500
C1597       C  0.98488289  0.35566918  0.09285027    -0.22500
C1598       C  0.51574271  0.35701817  0.41031416    -0.22500
C1599       C  0.98501954  0.35559575  0.41025910    -0.22500
C1600       C  0.55402575  0.36704824  0.05489403    -0.17800
C1601       C  0.55410701  0.36703625  0.44830746    -0.17800
C1602       C  0.94606984  0.36282347  0.44800016    -0.17800
C1603       C  0.94598657  0.36287220  0.05504775    -0.17800
H1604       H  0.60835181  0.34383950  0.03088566     0.15100
H1605       H  0.60839715  0.34383511  0.47240734     0.15100
H1606       H  0.89115867  0.33921742  0.03080499     0.15100
H1607       H  0.89120511  0.33918847  0.47217712     0.15100
H1608       H  0.53013398  0.35319675  0.11146606     0.13300
H1609       H  0.97060654  0.35069554  0.11155140     0.13300
H1610       H  0.53029955  0.35313222  0.39170937     0.13300
H1611       H  0.97077002  0.35060798  0.39154087     0.13300
H1612       H  0.52539478  0.38039465  0.00157566     0.26600
H1613       H  0.97475172  0.37659342  0.00153906     0.26600
C1614       C  0.61748824  0.12430982  0.11587818     0.86900
C1615       C  0.63589755  0.10327560  0.09491369    -0.53300
C1616       C  0.61873348  0.08497822  0.07638672     0.09900
C1617       C  0.58477374  0.08943493  0.08074625     0.20800
C1618       C  0.59703175  0.14436577  0.09567726    -0.54000
C1619       C  0.57972598  0.12588039  0.07713639     0.10000
C1620       C  0.59633369  0.10085298  0.13204629    -0.53600
C1621       C  0.57912640  0.08257447  0.11369197     0.10500
H1622       H  0.66016535  0.10254279  0.09499887     0.15100
H1623       H  0.57076863  0.07431373  0.06580947     0.00800
H1624       H  0.59629426  0.17045524  0.09601695     0.15400
H1625       H  0.59495901  0.09891924  0.15586223     0.15100
N1626       N  0.50197933  0.45059234  0.12396075    -0.36200
N1627       N  0.54739344  0.00053232  0.12749318    -0.56700
N1628       N  0.50232159  0.04937040  0.12300435    -0.36200
N1629       N  0.95685862  0.99975030  0.12693990    -0.56700
C1630       C  0.52591718  0.43315626  0.13186280     0.27400
C1631       C  0.97744909  0.43255969  0.13025033     0.27400
C1632       C  0.52678603  0.06815368  0.12737146     0.27400
C1633       C  0.97828677  0.06771271  0.12847832     0.27400
C1634       C  0.56513253  0.47494528  0.13147884     0.36000
C1635       C  0.56540111  0.02676286  0.12957924     0.36000
C1636       C  0.93890273  0.47360590  0.13000985     0.36000
C1637       C  0.93928315  0.02546784  0.13101243     0.36000
C1638       C  0.51658133  0.40445843  0.14439646    -0.21400
C1639       C  0.98573775  0.40408866  0.14340239    -0.21400
C1640       C  0.51833088  0.09835482  0.13654004    -0.21400
C1641       C  0.98751587  0.09807553  0.13722293    -0.21400
C1642       C  0.59364504  0.48491201  0.13895930    -0.22500
C1643       C  0.59379976  0.01796988  0.13783551    -0.22500
C1644       C  0.91076845  0.48255757  0.13890965    -0.22500
C1645       C  0.91102154  0.01564395  0.13957101    -0.22500
C1646       C  0.55592784  0.44271101  0.12835047    -0.17800
C1647       C  0.94779803  0.44177097  0.12537620    -0.17800
C1648       C  0.94825118  0.05761750  0.12638644    -0.17800
C1649       C  0.55654004  0.05849082  0.12404091    -0.17800
H1650       H  0.53057315  0.38616072  0.15391245     0.15100
H1651       H  0.97103781  0.38552771  0.15217838     0.15100
H1652       H  0.53292903  0.11802163  0.14320646     0.15100
H1653       H  0.97345185  0.11748639  0.14445520     0.15100
H1654       H  0.61196584  0.46983446  0.14553062     0.13300
H1655       H  0.61226739  0.03386364  0.14347499     0.13300
H1656       H  0.89246190  0.46677818  0.14530301     0.13300
H1657       H  0.89287551  0.03083700  0.14637456     0.13300
H1658       H  0.50237966  0.47168714  0.11166249     0.26600
H1659       H  0.50207556  0.02679773  0.11329385     0.26600
N1660       N  0.62408784  0.45430919  0.00163664    -0.36200
N1661       N  0.62981391  0.00348361  0.45714777    -0.56700
N1662       N  0.62770840  0.05310169  0.00164711    -0.36200
N1663       N  0.62970190  0.00349549  0.04614726    -0.56700
C1664       C  0.62898772  0.43578004  0.47780697     0.27400
C1665       C  0.62895200  0.43578508  0.02548014     0.27400
C1666       C  0.63507572  0.07086866  0.47779301     0.27400
C1667       C  0.63500965  0.07087585  0.02551418     0.27400
C1668       C  0.63226409  0.47746486  0.43962674     0.36000
C1669       C  0.63432448  0.02929814  0.43963441     0.36000
C1670       C  0.63214377  0.47747082  0.06366310     0.36000
C1671       C  0.63417296  0.02930427  0.06367219     0.36000
C1672       C  0.63790513  0.40557339  0.48650151    -0.21400
C1673       C  0.63788209  0.40557640  0.01681017    -0.21400
C1674       C  0.64830813  0.09957292  0.48647275    -0.21400
C1675       C  0.64826809  0.09957645  0.01685754    -0.21400
C1676       C  0.64136655  0.48661794  0.41183106    -0.22500
C1677       C  0.64262081  0.01970032  0.41181783    -0.22500
C1678       C  0.64119949  0.48661662  0.09147436    -0.22500
C1679       C  0.64243499  0.01970077  0.09149919    -0.22500
C1680       C  0.62625554  0.44561871  0.44842485    -0.17800
C1681       C  0.62616697  0.44562595  0.05485426    -0.17800
C1682       C  0.63072713  0.06138601  0.05486034    -0.17800
C1683       C  0.63085912  0.06137865  0.44843990    -0.17800
H1684       H  0.64482357  0.38606948  0.47242256     0.15100
H1685       H  0.64477826  0.38607443  0.03090693     0.15100
H1686       H  0.65776637  0.11805616  0.47234078     0.15100
H1687       H  0.65769223  0.11806103  0.03100637     0.15100
H1688       H  0.64740197  0.47095450  0.39387079     0.13300
H1689       H  0.64975114  0.03502951  0.39383249     0.13300
H1690       H  0.64721925  0.47094874  0.10944050     0.13300
H1691       H  0.64953679  0.03502593  0.10949525     0.13300
H1692       H  0.61432624  0.47682325  0.00162627     0.26600
H1693       H  0.61501903  0.03191927  0.00163229     0.26600
N1694       N  0.50350179  0.13522767  0.04673482    -0.36200
N1695       N  0.54909398  0.14074308  0.00159349    -0.56700
N1696       N  0.50358076  0.13519865  0.45638682    -0.36200
N1697       N  0.95792461  0.13763119  0.00152524    -0.56700
C1698       C  0.52776829  0.14200253  0.06355723     0.27400
C1699       C  0.97903705  0.14041903  0.06351279     0.27400
C1700       C  0.52787250  0.14197940  0.43960214     0.27400
C1701       C  0.97914251  0.14040594  0.43957325     0.27400
C1702       C  0.56720573  0.14188945  0.02545349     0.36000
C1703       C  0.56724699  0.14186872  0.47776403     0.36000
C1704       C  0.93977285  0.13836818  0.02530410     0.36000
C1705       C  0.93981414  0.13835573  0.47771372     0.36000
C1706       C  0.51866353  0.15256916  0.09090912    -0.21400
C1707       C  0.98778578  0.15157970  0.09087396    -0.21400
C1708       C  0.51881111  0.15256785  0.41224048    -0.21400
C1709       C  0.98793271  0.15158408  0.41222903    -0.21400
C1710       C  0.59644253  0.14685221  0.01677572    -0.22500
C1711       C  0.59646854  0.14684003  0.48648718    -0.22200
C1712       C  0.91056211  0.14256782  0.01660536    -0.22500
C1713       C  0.91058811  0.14255987  0.48635720    -0.22500
C1714       C  0.55786807  0.13839935  0.05499518    -0.17800
C1715       C  0.94905954  0.13523853  0.05479762    -0.17800
C1716       C  0.94915359  0.13521833  0.44823880    -0.17800
C1717       C  0.55795709  0.13836585  0.44820963    -0.17800
H1718       H  0.53285010  0.16082568  0.10874754     0.15100
H1719       H  0.97334239  0.15898498  0.10865012     0.15100
H1720       H  0.53302527  0.16083376  0.39442618     0.15100
H1721       H  0.97351671  0.15900188  0.39443293     0.15100
H1722       H  0.61547012  0.15116053  0.03097600     0.13300
H1723       H  0.61551951  0.15113901  0.47231573     0.13300
H1724       H  0.89151411  0.14640074  0.03074068     0.13300
H1725       H  0.89156535  0.14638632  0.47218508     0.13300
H1726       H  0.50368742  0.12362744  0.02649929     0.26600
H1727       H  0.50373238  0.12358463  0.47661929     0.26600
C1728       C  0.88734961  0.12119020  0.11368296     0.86900
C1729       C  0.90864018  0.14112483  0.09377173    -0.53300
C1730       C  0.92695811  0.12258743  0.07688442     0.09900
C1731       C  0.92187394  0.08611669  0.08150510     0.20800
C1732       C  0.87015575  0.09855496  0.09278318    -0.54000
C1733       C  0.88817015  0.08011475  0.07590657     0.10000
C1734       C  0.90782466  0.09924669  0.13184738    -0.53600
C1735       C  0.92604352  0.08083537  0.11485814     0.10500
H1736       H  0.90900078  0.16723109  0.09289756     0.15100
H1737       H  0.93655972  0.07096131  0.06767478     0.00800
H1738       H  0.84590809  0.09701415  0.09158180     0.15400
H1739       H  0.90793586  0.09835395  0.15573823     0.15100
N1740       N  0.87953135  0.04727011  0.00148716    -0.36200
N1741       N  0.87411631  0.49796494  0.04607542    -0.56700
N1742       N  0.87646554  0.44875241  0.00149404    -0.36200
N1743       N  0.87422975  0.49795173  0.45689962    -0.56700
C1744       C  0.87224675  0.06490198  0.02526215     0.27400
C1745       C  0.87229016  0.06489354  0.47768976     0.27400
C1746       C  0.87134249  0.43018836  0.02542435     0.27400
C1747       C  0.87140667  0.43018078  0.47755797     0.27400
C1748       C  0.87204173  0.02392484  0.06369034     0.36000
C1749       C  0.87029087  0.47211964  0.06367125     0.36000
C1750       C  0.87218620  0.02391004  0.43927264     0.36000
C1751       C  0.87045104  0.47210773  0.43929844     0.36000
C1752       C  0.85903077  0.09318662  0.01662052    -0.21400
C1753       C  0.85905797  0.09318115  0.48629265    -0.21400
C1754       C  0.86203014  0.39983750  0.01668124    -0.21400
C1755       C  0.86206956  0.39983312  0.48629113    -0.21400
C1756       C  0.86389693  0.01475932  0.09174226    -0.22500
C1757       C  0.86280449  0.48167872  0.09174967    -0.22500
C1758       C  0.86410910  0.01474394  0.41120373    -0.22500
C1759       C  0.86302433  0.48166585  0.41120225    -0.22500
C1760       C  0.87685860  0.05576560  0.05451628    -0.17800
C1761       C  0.87696568  0.05575187  0.44844911    -0.17800
C1762       C  0.87451588  0.44008734  0.44807103    -0.17800
C1763       C  0.87438311  0.44009929  0.05491422    -0.17800
H1764       H  0.84968014  0.11143067  0.03073463     0.15100
H1765       H  0.84973356  0.11142080  0.47215207     0.15100
H1766       H  0.85491868  0.38020931  0.03079958     0.15100
H1767       H  0.85499121  0.38020232  0.47216403     0.15100
H1768       H  0.85820008  0.03040047  0.10982724     0.13300
H1769       H  0.85637536  0.46631672  0.10995112     0.13300
H1770       H  0.85844291  0.03038447  0.39310516     0.13300
H1771       H  0.85663316  0.46630346  0.39299157     0.13300
H1772       H  0.89211472  0.02640479  0.00150437     0.26600
H1773       H  0.88657981  0.47137024  0.00150424     0.26600
C1774       C  0.86750958  0.35711663  0.36763644    -0.18100
C1775       C  0.85182488  0.34240189  0.35054777     0.06000
C1776       C  0.83350527  0.32498967  0.33061850     0.07900
C1777       C  0.81807004  0.30862956  0.31458473    -0.18900
C1778       C  0.86696696  0.14020177  0.37137696    -0.18100
C1779       C  0.84772322  0.15379194  0.35778299     0.06000
C1780       C  0.82444256  0.16915690  0.34244801     0.07900
C1781       C  0.80563619  0.18366278  0.32907524    -0.18900
C1782       C  0.69169198  0.30842494  0.32972440    -0.18100
C1783       C  0.67527492  0.32400104  0.34489925     0.06000
C1784       C  0.65438730  0.34239275  0.36053636     0.07900
C1785       C  0.63654865  0.35855883  0.37345485    -0.18900
C1786       C  0.81795574  0.30865354  0.18845197    -0.18100
C1787       C  0.83337587  0.32500753  0.17239729     0.06000
C1788       C  0.85168704  0.34240874  0.15245089     0.07900
C1789       C  0.86736979  0.35711862  0.13535550    -0.18900
C1790       C  0.63630781  0.14280932  0.36656307    -0.18100
C1791       C  0.65162034  0.15517209  0.34764855     0.06000
C1792       C  0.66935629  0.16922887  0.32509697     0.07900
C1793       C  0.68413887  0.18368094  0.30702797    -0.18900
C1794       C  0.63637245  0.35859495  0.12985787    -0.18100
C1795       C  0.65422272  0.34244373  0.14277837     0.06000
C1796       C  0.67513276  0.32406544  0.15840042     0.07900
C1797       C  0.69156944  0.30848706  0.17355435    -0.18900
C1798       C  0.80549213  0.18371115  0.17393509    -0.18100
C1799       C  0.82427108  0.16920959  0.16052082     0.06000
C1800       C  0.84752620  0.15383876  0.14515071     0.07900
C1801       C  0.86676229  0.14024226  0.13155140    -0.18900
C1802       C  0.63614675  0.14282534  0.13672111    -0.18100
C1803       C  0.65146596  0.15519156  0.15562947     0.06000
C1804       C  0.66922119  0.16925705  0.17816403     0.07900
C1805       C  0.68402733  0.18371155  0.19621349    -0.18900
O1806       O  0.68774289  0.23201170  0.72185560    -0.79700
O1807       O  0.78670855  0.20237438  0.78380934    -0.79700
O1808       O  0.76948006  0.22391825  0.67777337    -0.79700
O1809       O  0.72822217  0.20342610  0.78515193    -0.79700
O1810       O  0.78665578  0.20239311  0.71924969    -0.79800
O1811       O  0.68780177  0.23199158  0.78139667    -0.79700
O1812       O  0.76962671  0.22387758  0.82532850    -0.79700
O1813       O  0.72815384  0.20344420  0.71802175    -0.79700
C1814       C  0.70045824  0.20642507  0.71405459     1.10000
C1815       C  0.78658146  0.20421857  0.81227607     1.09900
C1816       C  0.78646752  0.20425446  0.69078310     1.10000
C1817       C  0.70053422  0.20640240  0.78916658     1.09900
O1818       O  0.70711721  0.29845502  0.78191924    -0.79700
O1819       O  0.81235429  0.26685120  0.72243087    -0.79800
O1820       O  0.72015223  0.26402429  0.68725233    -0.79700
O1821       O  0.77278250  0.28406883  0.80174509    -0.79700
O1822       O  0.81240683  0.26683478  0.78061289    -0.79700
O1823       O  0.70706359  0.29847715  0.72133253    -0.79700
O1824       O  0.72027203  0.26398142  0.81596296    -0.79700
O1825       O  0.77269022  0.28409321  0.70137188    -0.79700
Co1826     Co  0.70093602  0.26504887  0.75162243     1.51500
Co1827     Co  0.79322103  0.23691986  0.75153218     1.51700
Co1828     Co  0.75225483  0.24336329  0.71145592     1.51600
Co1829     Co  0.75233076  0.24334341  0.79168795     1.51500
O1830       O  0.74697531  0.25780198  0.75157829    -1.41600
C1831       C  0.70773099  0.28993319  0.80856119     1.09900
C1832       C  0.80017997  0.28621658  0.70524717     1.10000
C1833       C  0.70763353  0.28997542  0.69468623     1.10000
C1834       C  0.80026472  0.28619435  0.79782069     1.09900
C1835       C  0.88648229  0.37644102  0.88747573     0.86900
C1836       C  0.90804381  0.39898144  0.87063740    -0.53300
C1837       C  0.92564057  0.41748296  0.88851632     0.09900
C1838       C  0.91983637  0.41165546  0.92168120     0.20800
C1839       C  0.90647176  0.35659836  0.90816337    -0.54000
C1840       C  0.92393846  0.37523675  0.92630412     0.10000
C1841       C  0.86848375  0.39844147  0.90792522    -0.53600
C1842       C  0.88603229  0.41681721  0.92604434     0.10500
H1843       H  0.90919443  0.40034189  0.84678175     0.15100
H1844       H  0.93413017  0.42685225  0.93629134     0.00800
H1845       H  0.90689715  0.33048913  0.90834617     0.15400
H1846       H  0.84422520  0.39935135  0.90814378     0.15100
C1847       C  0.88753452  0.12115524  0.88927144     0.86900
C1848       C  0.87031357  0.09853169  0.91016172    -0.53300
C1849       C  0.88830621  0.08009720  0.92706974     0.09900
C1850       C  0.92201608  0.08608881  0.92150762     0.20800
C1851       C  0.90880259  0.14109441  0.90919729    -0.54000
C1852       C  0.92709613  0.12256051  0.92611745     0.10000
C1853       C  0.90802516  0.09920320  0.87114141    -0.53600
C1854       C  0.92622069  0.08079393  0.88816128     0.10500
H1855       H  0.84606432  0.09699242  0.91133310     0.15100
H1856       H  0.93668367  0.07093591  0.93536356     0.00800
H1857       H  0.90916099  0.16720082  0.91006277     0.15400
H1858       H  0.90816493  0.09830504  0.84725106     0.15100
C1859       C  0.61634180  0.37900550  0.89021339     0.86900
C1860       C  0.63346148  0.40258490  0.91032550    -0.53300
C1861       C  0.61528233  0.42174143  0.92640798     0.09900
C1862       C  0.58164821  0.41540557  0.92083717     0.20800
C1863       C  0.59508974  0.35998021  0.91067763    -0.54000
C1864       C  0.57680784  0.37915004  0.92679610     0.10000
C1865       C  0.59593270  0.40007703  0.87108374    -0.53600
C1866       C  0.57760642  0.41922211  0.88727193     0.10500
H1867       H  0.65768864  0.40379322  0.91199141     0.15100
H1868       H  0.56682923  0.43103679  0.93406367     0.00800
H1869       H  0.59454477  0.33390965  0.91230862     0.15400
H1870       H  0.59610569  0.40005039  0.84718036     0.15100
C1871       C  0.61764481  0.12428884  0.88739694     0.86900
C1872       C  0.59651638  0.10081938  0.87121675    -0.53300
C1873       C  0.57930145  0.08253411  0.88955964     0.09900
C1874       C  0.58491495  0.08940316  0.92250918     0.20800
C1875       C  0.59716212  0.14433767  0.90757088    -0.54000
C1876       C  0.57984841  0.12584785  0.92610269     0.10000
C1877       C  0.63604624  0.10326797  0.90838389    -0.53600
C1878       C  0.61887380  0.08496383  0.92689969     0.10500
H1879       H  0.59516192  0.09888402  0.84740000     0.15100
H1880       H  0.57090297  0.07427703  0.93743755     0.00800
H1881       H  0.59641130  0.17042639  0.90721827     0.15400
H1882       H  0.66031460  0.10254682  0.90832016     0.15100
N1883       N  0.50215291  0.45055621  0.87913690    -0.36200
N1884       N  0.54757959  0.00049672  0.87567656    -0.56700
N1885       N  0.50250851  0.04932710  0.88013690    -0.36200
N1886       N  0.95704486  0.99971198  0.87610833    -0.56700
C1887       C  0.52610184  0.43311847  0.87127705     0.27400
C1888       C  0.97762980  0.43251786  0.87283309     0.27400
C1889       C  0.52697951  0.06811447  0.87581857     0.27400
C1890       C  0.97848300  0.06767464  0.87463417     0.27400
C1891       C  0.56531862  0.47491236  0.87171006     0.36000
C1892       C  0.56559586  0.02672612  0.87364487     0.36000
C1893       C  0.93909065  0.47357305  0.87299285     0.36000
C1894       C  0.93948215  0.02543444  0.87200375     0.36000
C1895       C  0.51678160  0.40440983  0.85875770    -0.21400
C1896       C  0.98593581  0.40403766  0.85971581    -0.21400
C1897       C  0.51853915  0.09832367  0.86665241    -0.21400
C1898       C  0.98772570  0.09804552  0.86592161    -0.21400
C1899       C  0.59384805  0.48488160  0.86429418    -0.22500
C1900       C  0.59400916  0.01793632  0.86543924    -0.22500
C1901       C  0.91097678  0.48253364  0.86403282    -0.22500
C1902       C  0.91123853  0.01561910  0.86337811    -0.22500
C1903       C  0.55610877  0.44267712  0.87482352    -0.17800
C1904       C  0.94797122  0.44173603  0.87765353    -0.17800
C1905       C  0.94844435  0.05757867  0.87666781    -0.17800
C1906       C  0.55672791  0.05844920  0.87918970    -0.17800
H1907       H  0.53078549  0.38610684  0.84927286     0.15100
H1908       H  0.97124677  0.38547072  0.85093554     0.15100
H1909       H  0.53314758  0.11799513  0.86001651     0.15100
H1910       H  0.97367316  0.11746202  0.85867532     0.15100
H1911       H  0.61218048  0.46980642  0.85775476     0.13300
H1912       H  0.61248988  0.03383238  0.85984590     0.13300
H1913       H  0.89267937  0.46676088  0.85760201     0.13300
H1914       H  0.89310661  0.03081805  0.85654393     0.13300
H1915       H  0.50253832  0.47165678  0.89142160     0.26600
H1916       H  0.50224604  0.02674627  0.88983590     0.26600
C1917       C  0.88634265  0.37645014  0.61552144     0.86900
C1918       C  0.86834513  0.39845015  0.59506494    -0.53300
C1919       C  0.88589567  0.41683867  0.57695637     0.09900
C1920       C  0.91969978  0.41168659  0.58133319     0.20800
C1921       C  0.90634813  0.35662077  0.59484302    -0.54000
C1922       C  0.92381739  0.37527058  0.57671104     0.10000
C1923       C  0.90788967  0.39899311  0.63237033    -0.53600
C1924       C  0.92548680  0.41750665  0.61450054     0.10500
H1925       H  0.84408616  0.39934827  0.59483242     0.15100
H1926       H  0.93399515  0.42689331  0.56673107     0.00800
H1927       H  0.90678837  0.33051208  0.59466593     0.15400
H1928       H  0.90902866  0.40034904  0.65622658     0.15100
C1929       C  0.61618094  0.37903089  0.61307079     0.86900
C1930       C  0.59574748  0.40010808  0.63216442    -0.53300
C1931       C  0.57744210  0.41924936  0.61594289     0.09900
C1932       C  0.58152621  0.41542032  0.58238501     0.20800
C1933       C  0.59495685  0.35999830  0.59258661    -0.54000
C1934       C  0.57669630  0.37916392  0.57643457     0.10000
C1935       C  0.63332545  0.40260266  0.59297161    -0.53600
C1936       C  0.61516618  0.42175084  0.57685656     0.10500
H1937       H  0.59589118  0.40008905  0.65606795     0.15100
H1938       H  0.56672535  0.43104802  0.56913065     0.00800
H1939       H  0.59441682  0.33392743  0.59096465     0.15400
H1940       H  0.65755489  0.40381414  0.59133866     0.15100
N1941       N  0.54577061  0.36870416  0.50159362    -0.36200
N1942       N  0.50005508  0.36278277  0.54631698    -0.56700
N1943       N  0.95418294  0.36468779  0.50152920    -0.36200
N1944       N  0.50012466  0.36274950  0.95680817    -0.56700
C1945       C  0.56275620  0.36265397  0.52548598     0.27400
C1946       C  0.56279214  0.36265151  0.97773030     0.27400
C1947       C  0.93710669  0.35849553  0.52549939     0.27400
C1948       C  0.93714576  0.35847165  0.97753817     0.27400
C1949       C  0.52422622  0.36264549  0.56414754     0.36000
C1950       C  0.97595508  0.36036784  0.56414209     0.36000
C1951       C  0.52432090  0.36261126  0.93901235     0.36000
C1952       C  0.97605106  0.36031222  0.93895103     0.36000
C1953       C  0.59039325  0.35171758  0.51679452    -0.21400
C1954       C  0.59041549  0.35171575  0.98646813    -0.21400
C1955       C  0.90926429  0.34730383  0.51670727    -0.21400
C1956       C  0.90928885  0.34728984  0.98629629    -0.21400
C1957       C  0.51560534  0.35707789  0.59283762    -0.22500
C1958       C  0.98488277  0.35566854  0.59285003    -0.22500
C1959       C  0.51574191  0.35701806  0.91031449    -0.22500
C1960       C  0.98501987  0.35559549  0.91025947    -0.22500
C1961       C  0.55402660  0.36704778  0.55489377    -0.17800
C1962       C  0.55410617  0.36703655  0.94830773    -0.17800
C1963       C  0.94607014  0.36282414  0.94800035    -0.17800
C1964       C  0.94598642  0.36287111  0.55504749    -0.17800
H1965       H  0.60835292  0.34383970  0.53088545     0.15100
H1966       H  0.60839607  0.34383507  0.97240762     0.15100
H1967       H  0.89115861  0.33921604  0.53080477     0.15100
H1968       H  0.89120519  0.33918975  0.97217735     0.15100
H1969       H  0.53013501  0.35319612  0.61146576     0.13300
H1970       H  0.97060643  0.35069496  0.61155118     0.13300
H1971       H  0.53029878  0.35313173  0.89170978     0.13300
H1972       H  0.97077038  0.35060733  0.89154130     0.13300
H1973       H  0.52539566  0.38039401  0.50157537     0.26600
H1974       H  0.97475136  0.37659250  0.50153886     0.26600
C1975       C  0.61748857  0.12431030  0.61587803     0.86900
C1976       C  0.63589759  0.10327558  0.59491372    -0.53300
C1977       C  0.61873328  0.08497818  0.57638698     0.09900
C1978       C  0.58477362  0.08943530  0.58074662     0.20800
C1979       C  0.59703227  0.14436622  0.59567692    -0.54000
C1980       C  0.57972622  0.12588076  0.57713635     0.10000
C1981       C  0.59633385  0.10085391  0.63204647    -0.53600
C1982       C  0.57912634  0.08257531  0.61369243     0.10500
H1983       H  0.66016538  0.10254256  0.59499877     0.15100
H1984       H  0.57076833  0.07431408  0.56581004     0.00800
H1985       H  0.59629502  0.17045571  0.59601631     0.15400
H1986       H  0.59495934  0.09892038  0.65586244     0.15100
N1987       N  0.50197994  0.45059139  0.62396097    -0.36200
N1988       N  0.54739369  0.00053307  0.62749315    -0.56700
N1989       N  0.50232179  0.04937123  0.62300531    -0.36200
N1990       N  0.95685835  0.99975078  0.62694029    -0.56700
C1991       C  0.52591782  0.43315536  0.63186301     0.27400
C1992       C  0.97744878  0.43255861  0.63025055     0.27400
C1993       C  0.52678620  0.06815435  0.62737276     0.27400
C1994       C  0.97828625  0.06771323  0.62847953     0.27400
C1995       C  0.56513295  0.47494460  0.63147914     0.36000
C1996       C  0.56540131  0.02676363  0.62957962     0.36000
C1997       C  0.93890233  0.47360471  0.63000989     0.36000
C1998       C  0.93928268  0.02546824  0.63101259     0.36000
C1999       C  0.51658204  0.40445741  0.64439652    -0.21400
C2000       C  0.98573745  0.40408760  0.64340256    -0.21400
C2001       C  0.51833107  0.09835524  0.63654213    -0.21400
C2002       C  0.98751525  0.09807587  0.63722490    -0.21400
C2003       C  0.59364543  0.48491146  0.63895960    -0.22500
C2004       C  0.59379999  0.01797061  0.63783574    -0.22500
C2005       C  0.91076818  0.48255622  0.63891024    -0.22500
C2006       C  0.91102089  0.01564417  0.63957045    -0.22500
C2007       C  0.55592842  0.44271029  0.62835067    -0.17800
C2008       C  0.94779775  0.44176983  0.62537621    -0.17800
C2009       C  0.94825071  0.05761800  0.62638711    -0.17800
C2010       C  0.55654017  0.05849164  0.62404171    -0.17800
H2011       H  0.53057390  0.38615972  0.65391246     0.15100
H2012       H  0.97103752  0.38552660  0.65217848     0.15100
H2013       H  0.53292922  0.11802192  0.64320884     0.15100
H2014       H  0.97345119  0.11748652  0.64445757     0.15100
H2015       H  0.61196628  0.46983395  0.64553085     0.13300
H2016       H  0.61226762  0.03386430  0.64347540     0.13300
H2017       H  0.89246181  0.46677675  0.64530393     0.13300
H2018       H  0.89287463  0.03083705  0.64637373     0.13300
H2019       H  0.50238018  0.47168610  0.61166279     0.26600
H2020       H  0.50207575  0.02679861  0.61329407     0.26600
N2021       N  0.62408809  0.45430923  0.50163664    -0.36200
N2022       N  0.62981355  0.00348316  0.95714785    -0.56700
N2023       N  0.62770802  0.05310188  0.50164717    -0.36200
N2024       N  0.62970184  0.00349544  0.54614722    -0.56700
C2025       C  0.62898729  0.43577995  0.97780701     0.27400
C2026       C  0.62895244  0.43578507  0.52548010     0.27400
C2027       C  0.63507639  0.07086825  0.97779285     0.27400
C2028       C  0.63500909  0.07087593  0.52551433     0.27400
C2029       C  0.63226396  0.47746463  0.93962670     0.36000
C2030       C  0.63432451  0.02929757  0.93963442     0.36000
C2031       C  0.63214408  0.47747074  0.56366318     0.36000
C2032       C  0.63417272  0.02930421  0.56367220     0.36000
C2033       C  0.63790440  0.40557320  0.98650159    -0.21400
C2034       C  0.63788284  0.40557655  0.51681010    -0.21400
C2035       C  0.64830913  0.09957240  0.98647244    -0.21400
C2036       C  0.64826720  0.09957676  0.51685782    -0.21400
C2037       C  0.64136632  0.48661764  0.91183098    -0.22500
C2038       C  0.64262077  0.01969956  0.91181786    -0.22500
C2039       C  0.64119963  0.48661647  0.59147449    -0.22500
C2040       C  0.64243492  0.01970068  0.59149916    -0.22500
C2041       C  0.62625518  0.44561853  0.94842487    -0.17800
C2042       C  0.62616742  0.44562587  0.55485424    -0.17800
C2043       C  0.63072664  0.06138596  0.55486045    -0.17800
C2044       C  0.63085952  0.06137814  0.94843980    -0.17800
H2045       H  0.64482263  0.38606921  0.97242264     0.15100
H2046       H  0.64477925  0.38607467  0.53090683     0.15100
H2047       H  0.65776752  0.11805548  0.97234038     0.15100
H2048       H  0.65769124  0.11806134  0.53100672     0.15100
H2049       H  0.64740166  0.47095416  0.89387073     0.13300
H2050       H  0.64975125  0.03502859  0.89383247     0.13300
H2051       H  0.64721936  0.47094854  0.60944060     0.13300
H2052       H  0.64953661  0.03502586  0.60949524     0.13300
H2053       H  0.61432646  0.47682304  0.50162632     0.26600
H2054       H  0.61501886  0.03191912  0.50163224     0.26600
N2055       N  0.50350191  0.13522779  0.54673479    -0.36200
N2056       N  0.54909400  0.14074376  0.50159357    -0.56700
N2057       N  0.50358068  0.13519780  0.95638681    -0.36200
N2058       N  0.95792380  0.13763135  0.50152528    -0.56700
C2059       C  0.52776836  0.14200221  0.56355741     0.27400
C2060       C  0.97903632  0.14041867  0.56351288     0.27400
C2061       C  0.52787245  0.14197837  0.93960205     0.27400
C2062       C  0.97914333  0.14040541  0.93957323     0.27400
C2063       C  0.56720575  0.14189026  0.52545358     0.36000
C2064       C  0.56724699  0.14186752  0.97776395     0.36000
C2065       C  0.93977210  0.13836851  0.52530414     0.36000
C2066       C  0.93981494  0.13835538  0.97771368     0.36000
C2067       C  0.51866353  0.15256802  0.59090955    -0.21400
C2068       C  0.98778506  0.15157845  0.59087435    -0.21400
C2069       C  0.51881106  0.15256678  0.91224037    -0.21400
C2070       C  0.98793360  0.15158346  0.91222901    -0.21400
C2071       C  0.59644247  0.14685357  0.51677582    -0.22500
C2072       C  0.59646860  0.14683845  0.98648709    -0.22200
C2073       C  0.91056139  0.14256842  0.51660543    -0.22500
C2074       C  0.91058886  0.14255928  0.98635713    -0.22500
C2075       C  0.55786816  0.13839959  0.55499525    -0.17800
C2076       C  0.94905881  0.13523843  0.55479761    -0.17800
C2077       C  0.94915437  0.13521797  0.94823876    -0.17800
C2078       C  0.55795705  0.13836479  0.94820955    -0.17800
H2079       H  0.53285006  0.16082417  0.60874815     0.15100
H2080       H  0.97334165  0.15898314  0.60865071     0.15100
H2081       H  0.53302518  0.16083258  0.89442601     0.15100
H2082       H  0.97351763  0.15900132  0.89443290     0.15100
H2083       H  0.61547003  0.15116196  0.53097614     0.13300
H2084       H  0.61551959  0.15113718  0.97231560     0.13300
H2085       H  0.89151341  0.14640143  0.53074075     0.13300
H2086       H  0.89156610  0.14638561  0.97218498     0.13300
H2087       H  0.50368759  0.12362820  0.52649906     0.26600
H2088       H  0.50373227  0.12358402  0.97661930     0.26600
C2089       C  0.88734902  0.12119027  0.61368295     0.86900
C2090       C  0.90863936  0.14112481  0.59377148    -0.53300
C2091       C  0.92695737  0.12258734  0.57688435     0.09900
C2092       C  0.92187348  0.08611662  0.58150540     0.20800
C2093       C  0.87015527  0.09855464  0.59278344    -0.54000
C2094       C  0.88816974  0.08011439  0.57590695     0.10000
C2095       C  0.90782426  0.09924721  0.63184760    -0.53600
C2096       C  0.92604317  0.08083579  0.61485853     0.10500
H2097       H  0.90899984  0.16723106  0.59289709     0.15100
H2098       H  0.93655930  0.07096117  0.56767518     0.00800
H2099       H  0.84590762  0.09701377  0.59158203     0.15400
H2100       H  0.90793549  0.09835480  0.65573847     0.15100
N2101       N  0.87953109  0.04727020  0.50148728    -0.36200
N2102       N  0.87411553  0.49796432  0.54607546    -0.56700
N2103       N  0.87646579  0.44875205  0.50149388    -0.36200
N2104       N  0.87423037  0.49795200  0.95689956    -0.56700
C2105       C  0.87224662  0.06490200  0.52526236     0.27400
C2106       C  0.87229056  0.06489338  0.97768955     0.27400
C2107       C  0.87134280  0.43018784  0.52542410     0.27400
C2108       C  0.87140635  0.43018108  0.97755820     0.27400
C2109       C  0.87204113  0.02392464  0.56369036     0.36000
C2110       C  0.87029076  0.47211887  0.56367123     0.36000
C2111       C  0.87218685  0.02390975  0.93927255     0.36000
C2112       C  0.87045130  0.47210797  0.93929849     0.36000
C2113       C  0.85903067  0.09318671  0.51662085    -0.21400
C2114       C  0.85905821  0.09318095  0.98629231    -0.21400
C2115       C  0.86203065  0.39983697  0.51668085    -0.21400
C2116       C  0.86206910  0.39983350  0.98629149    -0.21400
C2117       C  0.86389588  0.01475904  0.59174214    -0.22500
C2118       C  0.86280474  0.48167769  0.59174983    -0.22500
C2119       C  0.86410998  0.01474352  0.91120359    -0.22500
C2120       C  0.86302469  0.48166609  0.91120225    -0.22500
C2121       C  0.87685828  0.05576540  0.55451647    -0.17800
C2122       C  0.87696632  0.05575162  0.94844894    -0.17800
C2123       C  0.87451578  0.44008754  0.94807121    -0.17800
C2124       C  0.87438326  0.44009862  0.55491402    -0.17800
H2125       H  0.84968006  0.11143068  0.53073505     0.15100
H2126       H  0.84973382  0.11142055  0.97215167     0.15100
H2127       H  0.85491931  0.38020868  0.53079910     0.15100
H2128       H  0.85499072  0.38020265  0.97216446     0.15100
H2129       H  0.85819877  0.03040011  0.60982709     0.13300
H2130       H  0.85637610  0.46631546  0.60995129     0.13300
H2131       H  0.85844399  0.03038400  0.89310493     0.13300
H2132       H  0.85663334  0.46630371  0.89299161     0.13300
H2133       H  0.89211442  0.02640479  0.50150434     0.26600
H2134       H  0.88657987  0.47136990  0.50150420     0.26600
C2135       C  0.86751009  0.35711689  0.86763642    -0.18100
C2136       C  0.85182539  0.34240184  0.85054793     0.06000
C2137       C  0.83350560  0.32498936  0.83061896     0.07900
C2138       C  0.81807014  0.30862921  0.81458538    -0.18900
C2139       C  0.86696784  0.14020163  0.87137671    -0.18100
C2140       C  0.84772401  0.15379165  0.85778274     0.06000
C2141       C  0.82444318  0.16915646  0.84244783     0.07900
C2142       C  0.80563664  0.18366222  0.82907515    -0.18900
C2143       C  0.69169158  0.30842413  0.82972504    -0.18100
C2144       C  0.67527434  0.32400025  0.84489974     0.06000
C2145       C  0.65438668  0.34239212  0.86053677     0.07900
C2146       C  0.63654801  0.35855831  0.87345518    -0.18900
C2147       C  0.81795578  0.30865365  0.68845255    -0.18100
C2148       C  0.83337574  0.32500741  0.67239757     0.06000
C2149       C  0.85168675  0.34240821  0.65245078     0.07900
C2150       C  0.86736946  0.35711776  0.63535514    -0.18900
C2151       C  0.63630763  0.14280863  0.86656286    -0.18100
C2152       C  0.65162017  0.15517147  0.84764837     0.06000
C2153       C  0.66935618  0.16922829  0.82509686     0.07900
C2154       C  0.68413883  0.18368041  0.80702795    -0.18900
C2155       C  0.63637338  0.35859484  0.62985763    -0.18100
C2156       C  0.65422368  0.34244386  0.64277831     0.06000
C2157       C  0.67513358  0.32406577  0.65840067     0.07900
C2158       C  0.69157003  0.30848745  0.67355486    -0.18900
C2159       C  0.80549177  0.18371144  0.67393493    -0.18100
C2160       C  0.82427055  0.16920977  0.66052056     0.06000
C2161       C  0.84752559  0.15383890  0.64515046     0.07900
C2162       C  0.86676167  0.14024240  0.63155120    -0.18900
C2163       C  0.63614733  0.14282586  0.63672072    -0.18100
C2164       C  0.65146656  0.15519210  0.65562905     0.06000
C2165       C  0.66922169  0.16925741  0.67816375     0.07900
C2166       C  0.68402771  0.18371169  0.69621343    -0.18900
O2167       O  0.68774395  0.73200668  0.22185448    -0.79700
O2168       O  0.78671487  0.70237990  0.28380817    -0.79700
O2169       O  0.76947756  0.72391742  0.17777319    -0.79700
O2170       O  0.72822276  0.70342191  0.28514760    -0.79700
O2171       O  0.78666258  0.70239932  0.21924964    -0.79800
O2172       O  0.68780176  0.73198629  0.28139484    -0.79700
O2173       O  0.76962133  0.72387428  0.32532737    -0.79700
O2174       O  0.72815607  0.70344106  0.21802327    -0.79700
C2175       C  0.70046036  0.70642037  0.21405436     1.10000
C2176       C  0.78657776  0.70421698  0.31227535     1.09900
C2177       C  0.78646585  0.70425458  0.19078271     1.10000
C2178       C  0.70053469  0.70639710  0.28916385     1.09900
O2179       O  0.70711488  0.79845065  0.28191791    -0.79700
O2180       O  0.81235301  0.76686316  0.22243037    -0.79800
O2181       O  0.72015078  0.76402000  0.18725287    -0.79700
O2182       O  0.77277834  0.78406687  0.30175007    -0.79700
O2183       O  0.81240507  0.76684613  0.28061311    -0.79700
O2184       O  0.70706195  0.79847335  0.22133240    -0.79700
O2185       O  0.72026926  0.76397572  0.31596056    -0.79700
O2186       O  0.77268682  0.78409331  0.20136713    -0.79700
Co2187     Co  0.70093531  0.76504479  0.25162135     1.51500
Co2188     Co  0.79322313  0.73692832  0.25153180     1.51700
Co2189     Co  0.75225486  0.74336213  0.21145573     1.51600
Co2190     Co  0.75232962  0.74334076  0.29168672     1.51500
O2191       O  0.74697527  0.75780284  0.25157773    -1.41600
C2192       C  0.70772879  0.78992775  0.30855941     1.09900
C2193       C  0.80017620  0.78622292  0.20524290     1.10000
C2194       C  0.70763192  0.78997090  0.19468647     1.10000
C2195       C  0.80026018  0.78619925  0.29782516     1.09900
C2196       C  0.88648885  0.87644016  0.38747891     0.86900
C2197       C  0.90805376  0.89897372  0.37063660    -0.53300
C2198       C  0.92565494  0.91747434  0.38851248     0.09900
C2199       C  0.91985301  0.91165142  0.42167808     0.20800
C2200       C  0.90647565  0.85659538  0.40816764    -0.54000
C2201       C  0.92394760  0.87523192  0.42630522     0.10000
C2202       C  0.86849690  0.89844827  0.40792712    -0.53600
C2203       C  0.88605095  0.91682304  0.42604202     0.10500
H2204       H  0.90920088  0.90033303  0.34678076     0.15100
H2205       H  0.93415092  0.92684678  0.43628564     0.00800
H2206       H  0.90689591  0.83048598  0.40835305     0.15400
H2207       H  0.84423862  0.89936323  0.40814848     0.15100
C2208       C  0.88751702  0.62114800  0.38927631     0.86900
C2209       C  0.87030011  0.59852121  0.41016621    -0.53300
C2210       C  0.88829601  0.58008970  0.42707321     0.09900
C2211       C  0.92200505  0.58608752  0.42151080     0.20800
C2212       C  0.90878236  0.64109082  0.40920191    -0.54000
C2213       C  0.92707952  0.62256001  0.42612113     0.10000
C2214       C  0.90801040  0.59920038  0.37114522    -0.53600
C2215       C  0.92620951  0.58079452  0.38816417     0.10500
H2216       H  0.84605104  0.59697749  0.41133811     0.15100
H2217       H  0.93667534  0.57093686  0.43536603     0.00800
H2218       H  0.90913671  0.66719722  0.41006756     0.15400
H2219       H  0.90814900  0.59830202  0.34725485     0.15100
C2220       C  0.61635166  0.87900303  0.39021610     0.86900
C2221       C  0.63347240  0.90258315  0.41032650    -0.53300
C2222       C  0.61529385  0.92173993  0.42640928     0.09900
C2223       C  0.58165943  0.91540382  0.42083991     0.20800
C2224       C  0.59510100  0.85997828  0.41068156    -0.54000
C2225       C  0.57681972  0.87914850  0.42679984     0.10000
C2226       C  0.59594170  0.90007318  0.37108648    -0.53600
C2227       C  0.57761601  0.91921861  0.38727466     0.10500
H2228       H  0.65769963  0.90379110  0.41199171     0.15100
H2229       H  0.56684083  0.93103532  0.43406652     0.00800
H2230       H  0.59455564  0.83390773  0.41231265     0.15400
H2231       H  0.59611394  0.90004563  0.34718309     0.15100
C2232       C  0.61763245  0.62429582  0.38739608     0.86900
C2233       C  0.59650573  0.60082519  0.37121520    -0.53300
C2234       C  0.57929099  0.58253884  0.38955728     0.09900
C2235       C  0.58490222  0.58940833  0.42250713     0.20800
C2236       C  0.59714755  0.64434356  0.40756960    -0.54000
C2237       C  0.57983381  0.62585275  0.42610118     0.10000
C2238       C  0.63603355  0.60327560  0.40838418    -0.53600
C2239       C  0.61886089  0.58497036  0.42689913     0.10500
H2240       H  0.59515219  0.59888987  0.34739838     0.15100
H2241       H  0.57089017  0.57428124  0.43743463     0.00800
H2242       H  0.59639582  0.67043223  0.40721723     0.15400
H2243       H  0.66030194  0.60255514  0.40832131     0.15100
N2244       N  0.50216345  0.95055168  0.37913378    -0.36200
N2245       N  0.54756993  0.50050131  0.37567233    -0.56700
N2246       N  0.50249902  0.54933164  0.38013780    -0.36200
N2247       N  0.95703529  0.49971641  0.37610690    -0.56700
C2248       C  0.52611319  0.93311576  0.37127319     0.27400
C2249       C  0.97764043  0.93251450  0.37282402     0.27400
C2250       C  0.52696950  0.56811909  0.37581806     0.27400
C2251       C  0.97847239  0.56767902  0.37463685     0.27400
C2252       C  0.56532924  0.97490909  0.37171576     0.36000
C2253       C  0.56558579  0.52673098  0.37363926     0.36000
C2254       C  0.93909935  0.97356782  0.37299394     0.36000
C2255       C  0.93947309  0.52543865  0.37200045     0.36000
C2256       C  0.51679464  0.90441014  0.35874676    -0.21400
C2257       C  0.98594772  0.90403746  0.35970172    -0.21400
C2258       C  0.51852839  0.59832859  0.36665336    -0.21400
C2259       C  0.98771415  0.59805014  0.36592437    -0.21400
C2260       C  0.59385920  0.98487837  0.36430243    -0.22500
C2261       C  0.59399840  0.51794129  0.36543108    -0.22500
C2262       C  0.91098465  0.98252839  0.36403669    -0.22500
C2263       C  0.91122994  0.51562365  0.36337301    -0.22500
C2264       C  0.55611928  0.94267392  0.37482578    -0.17800
C2265       C  0.94798187  0.94172987  0.37764709    -0.17800
C2266       C  0.94843422  0.55758198  0.37666908    -0.17800
C2267       C  0.55671806  0.55845388  0.37918637    -0.17800
H2268       H  0.53079974  0.88610899  0.34926064     0.15100
H2269       H  0.97125955  0.88547169  0.35091789     0.15100
H2270       H  0.53313625  0.61800025  0.36001673     0.15100
H2271       H  0.97366093  0.61746629  0.35867860     0.15100
H2272       H  0.61219189  0.96980335  0.35776352     0.13300
H2273       H  0.61247887  0.53383741  0.35983696     0.13300
H2274       H  0.89268766  0.96675542  0.35760505     0.13300
H2275       H  0.89309825  0.53082275  0.35653853     0.13300
H2276       H  0.50254745  0.97164925  0.39142291     0.26600
H2277       H  0.50223724  0.52675025  0.38983615     0.26600
C2278       C  0.88634720  0.87645160  0.11551651     0.86900
C2279       C  0.86835606  0.89845905  0.09506128    -0.53300
C2280       C  0.88591199  0.91684685  0.07695703     0.09900
C2281       C  0.91971414  0.91168547  0.08133484     0.20800
C2282       C  0.90635047  0.85662054  0.09483706    -0.54000
C2283       C  0.92382481  0.87526880  0.07670835     0.10000
C2284       C  0.90789724  0.89898799  0.13236955    -0.53600
C2285       C  0.92549871  0.91750085  0.11450294     0.10500
H2286       H  0.84409735  0.89936180  0.09482572     0.15100
H2287       H  0.93401347  0.92689105  0.06673541     0.00800
H2288       H  0.90678614  0.83051171  0.09465756     0.15400
H2289       H  0.90903268  0.90034263  0.15622599     0.15100
C2290       C  0.61618672  0.87902967  0.11307157     0.86900
C2291       C  0.59575144  0.90010483  0.13216488    -0.53300
C2292       C  0.57744742  0.91924703  0.11594299     0.09900
C2293       C  0.58153489  0.91542106  0.08238517     0.20800
C2294       C  0.59496499  0.85999845  0.09258457    -0.54000
C2295       C  0.57670588  0.87916510  0.07643243     0.10000
C2296       C  0.63333328  0.90260287  0.09297564    -0.53600
C2297       C  0.61517550  0.92175199  0.07686008     0.10500
H2298       H  0.59589335  0.90008426  0.15606842     0.15100
H2299       H  0.56673508  0.93104957  0.06913043     0.00800
H2300       H  0.59442427  0.83392762  0.09096199     0.15400
H2301       H  0.65756286  0.90381359  0.09134409     0.15100
N2302       N  0.54577913  0.86870266  0.00159428    -0.36200
N2303       N  0.50006363  0.86278183  0.04631709    -0.56700
N2304       N  0.95419324  0.86468019  0.00152886    -0.36200
N2305       N  0.50013544  0.86274384  0.45680833    -0.56700
C2306       C  0.56276336  0.86264937  0.02548669     0.27400
C2307       C  0.56280115  0.86264616  0.47773133     0.27400
C2308       C  0.93711843  0.85848254  0.02549915     0.27400
C2309       C  0.93715768  0.85845666  0.47753732     0.27400
C2310       C  0.52423450  0.86265223  0.06414817     0.36000
C2311       C  0.97596461  0.86037226  0.06414281     0.36000
C2312       C  0.52433181  0.86261272  0.43901253     0.36000
C2313       C  0.97606153  0.86031173  0.43894997     0.36000
C2314       C  0.59039816  0.85170568  0.01679616    -0.21400
C2315       C  0.59042246  0.85170489  0.48646948    -0.21400
C2316       C  0.90927988  0.84727918  0.01670694    -0.21400
C2317       C  0.90930452  0.84726332  0.48629537    -0.21400
C2318       C  0.51561376  0.85709487  0.09283980    -0.22500
C2319       C  0.98489224  0.85568417  0.09285229    -0.22500
C2320       C  0.51575361  0.85702863  0.41031309    -0.22500
C2321       C  0.98503092  0.85560529  0.41025713    -0.22500
C2322       C  0.55403490  0.86704942  0.05489349    -0.17800
C2323       C  0.55411677  0.86703480  0.44830929    -0.17800
C2324       C  0.94608029  0.86281668  0.44799974    -0.17800
C2325       C  0.94599572  0.86286717  0.05504706    -0.17800
H2326       H  0.60835638  0.84382509  0.03088756     0.15100
H2327       H  0.60840211  0.84382102  0.47240933     0.15100
H2328       H  0.89117571  0.83918706  0.03080437     0.15100
H2329       H  0.89122281  0.83915794  0.47217642     0.15100
H2330       H  0.53014369  0.85321851  0.11146868     0.13300
H2331       H  0.97061585  0.85071542  0.11155441     0.13300
H2332       H  0.53031113  0.85314750  0.39170799     0.13300
H2333       H  0.97078181  0.85062195  0.39153768     0.13300
H2334       H  0.52540650  0.88039740  0.00157538     0.26600
H2335       H  0.97475767  0.87659356  0.00153840     0.26600
C2336       C  0.61747942  0.62431462  0.11587741     0.86900
C2337       C  0.63588715  0.60328063  0.09491109    -0.53300
C2338       C  0.61872170  0.58498258  0.07638566     0.09900
C2339       C  0.58476245  0.58943852  0.08074816     0.20800
C2340       C  0.59702034  0.64436988  0.09567772    -0.54000
C2341       C  0.57971348  0.62588386  0.07713782     0.10000
C2342       C  0.59632695  0.60085701  0.13204720    -0.53600
C2343       C  0.57911880  0.58257760  0.11369448     0.10500
H2344       H  0.66015495  0.60254802  0.09499438     0.15100
H2345       H  0.57075637  0.57431668  0.06581279     0.00800
H2346       H  0.59628248  0.67045934  0.09601708     0.15400
H2347       H  0.59495432  0.59892332  0.15586328     0.15100
N2348       N  0.50198644  0.95058860  0.12396398    -0.36200
N2349       N  0.54738689  0.50053523  0.12749740    -0.56700
N2350       N  0.50231529  0.54937365  0.12300623    -0.36200
N2351       N  0.95685282  0.49975352  0.12694311    -0.56700
C2352       C  0.52592466  0.93315471  0.13186861     0.27400
C2353       C  0.97745674  0.93255783  0.13025955     0.27400
C2354       C  0.52677941  0.56815686  0.12737429     0.27400
C2355       C  0.97828031  0.56771595  0.12847903     0.27400
C2356       C  0.56513957  0.97494281  0.13147443     0.36000
C2357       C  0.56539422  0.52676593  0.12958548     0.36000
C2358       C  0.93890871  0.97360232  0.13000676     0.36000
C2359       C  0.93927807  0.52547083  0.13101870     0.36000
C2360       C  0.51658982  0.90446076  0.14441058    -0.21400
C2361       C  0.98574606  0.90409065  0.14341833    -0.21400
C2362       C  0.51832393  0.59835821  0.13654204    -0.21400
C2363       C  0.98750880  0.59807892  0.13722358    -0.21400
C2364       C  0.59365271  0.98490957  0.13895209    -0.22500
C2365       C  0.59379221  0.51797262  0.13784375    -0.22500
C2366       C  0.91077343  0.98255425  0.13890303    -0.22500
C2367       C  0.91101714  0.51564708  0.13957959    -0.22500
C2368       C  0.55593465  0.94270855  0.12835070    -0.17800
C2369       C  0.94780593  0.94176637  0.12538142    -0.17800
C2370       C  0.94824509  0.55761980  0.12638894    -0.17800
C2371       C  0.55653342  0.55849392  0.12404547    -0.17800
H2372       H  0.53058235  0.88616527  0.15392920     0.15100
H2373       H  0.97104663  0.88553128  0.15219803     0.15100
H2374       H  0.53292187  0.61802500  0.14320899     0.15100
H2375       H  0.97344440  0.61748948  0.14445578     0.15100
H2376       H  0.61197354  0.96983218  0.14552354     0.13300
H2377       H  0.61225977  0.53386618  0.14348407     0.13300
H2378       H  0.89246708  0.96677489  0.14529709     0.13300
H2379       H  0.89287149  0.53084003  0.14638429     0.13300
H2380       H  0.50238592  0.97167987  0.11166024     0.26600
H2381       H  0.50206963  0.52680073  0.11329600     0.26600
N2382       N  0.62409928  0.95430707  0.00163897    -0.36200
N2383       N  0.62979810  0.50348737  0.45714587    -0.56700
N2384       N  0.62769908  0.55310453  0.00164563    -0.36200
N2385       N  0.62968431  0.50349790  0.04614565    -0.56700
C2386       C  0.62899641  0.93577648  0.47780924     0.27400
C2387       C  0.62895992  0.93578223  0.02548276     0.27400
C2388       C  0.63506423  0.57087276  0.47779185     0.27400
C2389       C  0.63499750  0.57087937  0.02551302     0.27400
C2390       C  0.63228038  0.97746096  0.43962906     0.36000
C2391       C  0.63430796  0.52930233  0.43963260     0.36000
C2392       C  0.63216128  0.97746866  0.06366481     0.36000
C2393       C  0.63415508  0.52930672  0.06367084     0.36000
C2394       C  0.63790760  0.90556776  0.48650418    -0.21400
C2395       C  0.63788301  0.90557100  0.01681314    -0.21400
C2396       C  0.64829261  0.59957898  0.48647197    -0.21400
C2397       C  0.64825149  0.59958248  0.01685674    -0.21400
C2398       C  0.64138436  0.98661353  0.41183363    -0.22500
C2399       C  0.64260284  0.51970474  0.41181560    -0.22500
C2400       C  0.64121791  0.98661451  0.09147591    -0.22500
C2401       C  0.64241624  0.51970284  0.09149790    -0.22500
C2402       C  0.62626764  0.94561563  0.44842685    -0.17800
C2403       C  0.62617901  0.94562463  0.05485693    -0.17800
C2404       C  0.63071326  0.56138926  0.05485898    -0.17800
C2405       C  0.63084596  0.56138334  0.44843870    -0.17800
H2406       H  0.64482263  0.88606226  0.47242541     0.15100
H2407       H  0.64477577  0.88606786  0.03091018     0.15100
H2408       H  0.65774770  0.61806425  0.47234024     0.15100
H2409       H  0.65767225  0.61806878  0.03100582     0.15100
H2410       H  0.64741934  0.97094987  0.39387336     0.13300
H2411       H  0.64973338  0.53503418  0.39383054     0.13300
H2412       H  0.64723622  0.97094679  0.10944266     0.13300
H2413       H  0.64951896  0.53502788  0.10949368     0.13300
H2414       H  0.61434285  0.97682336  0.00162841     0.26600
H2415       H  0.61501152  0.53192097  0.00163050     0.26600
N2416       N  0.50348760  0.63522859  0.04673615    -0.36200
N2417       N  0.54907902  0.64074414  0.00159381    -0.56700
N2418       N  0.50356486  0.63519894  0.45638739    -0.36200
N2419       N  0.95790963  0.63763903  0.00152665    -0.56700
C2420       C  0.52775424  0.64200322  0.06355866     0.27400
C2421       C  0.97902279  0.64042041  0.06351391     0.27400
C2422       C  0.52785634  0.64198007  0.43960217     0.27400
C2423       C  0.97912628  0.64040756  0.43957483     0.27400
C2424       C  0.56719093  0.64189286  0.02545392     0.36000
C2425       C  0.56723119  0.64187080  0.47776402     0.36000
C2426       C  0.93975808  0.63837445  0.02530570     0.36000
C2427       C  0.93979844  0.63836109  0.47771586     0.36000
C2428       C  0.51864945  0.65257032  0.09091039    -0.21400
C2429       C  0.98777154  0.65158131  0.09087495    -0.21400
C2430       C  0.51879413  0.65257001  0.41224126    -0.21400
C2431       C  0.98791580  0.65158665  0.41223073    -0.21400
C2432       C  0.59642696  0.64685992  0.01677555    -0.22500
C2433       C  0.59645226  0.64684579  0.48648710    -0.22200
C2434       C  0.91054698  0.64257300  0.01660750    -0.22500
C2435       C  0.91057219  0.64256313  0.48635975    -0.22500
C2436       C  0.55785422  0.63840153  0.05499623    -0.17800
C2437       C  0.94904519  0.63524105  0.05479872    -0.17800
C2438       C  0.94913740  0.63522107  0.44824107    -0.17800
C2439       C  0.55794145  0.63836779  0.44820915    -0.17800
H2440       H  0.53283601  0.66082747  0.10874858     0.15100
H2441       H  0.97332808  0.65898730  0.10865082     0.15100
H2442       H  0.53300777  0.66083710  0.39442701     0.15100
H2443       H  0.97349924  0.65900573  0.39443551     0.15100
H2444       H  0.61545431  0.65117080  0.03097553     0.13300
H2445       H  0.61550266  0.65114743  0.47231554     0.13300
H2446       H  0.89149872  0.64640343  0.03074309     0.13300
H2447       H  0.89154867  0.64638704  0.47218799     0.13300
H2448       H  0.50367279  0.62362903  0.02650052     0.26600
H2449       H  0.50371661  0.62358497  0.47661969     0.26600
C2450       C  0.88733592  0.62118191  0.11368232     0.86900
C2451       C  0.90862344  0.64112020  0.09377114    -0.53300
C2452       C  0.92694481  0.62258603  0.07688460     0.09900
C2453       C  0.92186658  0.58611451  0.08150600     0.20800
C2454       C  0.87014602  0.59854316  0.09278320    -0.54000
C2455       C  0.88816364  0.58010601  0.07590752     0.10000
C2456       C  0.90781404  0.59924307  0.13184774    -0.53600
C2457       C  0.92603639  0.58083516  0.11485931     0.10500
H2458       H  0.90897983  0.66722645  0.09289673     0.15100
H2459       H  0.93655496  0.57096146  0.06767621     0.00800
H2460       H  0.84589854  0.59699777  0.09158146     0.15400
H2461       H  0.90792417  0.59835030  0.15573860     0.15100
N2462       N  0.87952603  0.54725883  0.00148891    -0.36200
N2463       N  0.87413260  0.99797424  0.04607366    -0.56700
N2464       N  0.87649339  0.94876149  0.00149296    -0.36200
N2465       N  0.87424902  0.99796052  0.45689823    -0.56700
C2466       C  0.87224266  0.56489116  0.02526392     0.27400
C2467       C  0.87228369  0.56488273  0.47769223     0.27400
C2468       C  0.87137478  0.93019590  0.02542294     0.27400
C2469       C  0.87143967  0.93018813  0.47755725     0.27400
C2470       C  0.87203429  0.52391574  0.06369293     0.36000
C2471       C  0.87030753  0.97212810  0.06366877     0.36000
C2472       C  0.87217553  0.52390174  0.43927361     0.36000
C2473       C  0.87047068  0.97211539  0.43929811     0.36000
C2474       C  0.85902775  0.59317648  0.01662289    -0.21400
C2475       C  0.85905252  0.59317060  0.48629552    -0.21400
C2476       C  0.86207325  0.89984146  0.01668004    -0.21400
C2477       C  0.86211277  0.89983716  0.48629041    -0.21400
C2478       C  0.86389406  0.51475176  0.09174656    -0.22500
C2479       C  0.86281248  0.98168604  0.09174520    -0.22500
C2480       C  0.86410287  0.51473757  0.41120291    -0.22500
C2481       C  0.86303555  0.98167197  0.41120372    -0.22500
C2482       C  0.87685509  0.55575530  0.05451775    -0.17800
C2483       C  0.87695906  0.55574223  0.44845159    -0.17800
C2484       C  0.87454160  0.94009550  0.44807033    -0.17800
C2485       C  0.87440660  0.94010821  0.05491273    -0.17800
H2486       H  0.84967751  0.61142045  0.03073729     0.15100
H2487       H  0.84972791  0.61141042  0.47215531     0.15100
H2488       H  0.85496578  0.88021164  0.03079828     0.15100
H2489       H  0.85503907  0.88020442  0.47216347     0.15100
H2490       H  0.85820310  0.53039392  0.10983256     0.13300
H2491       H  0.85638128  0.96632307  0.10994526     0.13300
H2492       H  0.85844248  0.53037938  0.39310356     0.13300
H2493       H  0.85664221  0.96630836  0.39299463     0.13300
H2494       H  0.89210797  0.52639230  0.00150564     0.26600
H2495       H  0.88659944  0.97138318  0.00150321     0.26600
C2496       C  0.86751004  0.85711794  0.36764317    -0.18100
C2497       C  0.85182044  0.84240492  0.35055703     0.06000
C2498       C  0.83349751  0.82499430  0.33062859     0.07900
C2499       C  0.81806245  0.80863483  0.31459348    -0.18900
C2500       C  0.86694701  0.64019002  0.37138260    -0.18100
C2501       C  0.84770216  0.65377708  0.35778826     0.06000
C2502       C  0.82442377  0.66914211  0.34245123     0.07900
C2503       C  0.80562292  0.68365252  0.32907587    -0.18900
C2504       C  0.69169077  0.80841782  0.32972368    -0.18100
C2505       C  0.67527574  0.82399402  0.34489980     0.06000
C2506       C  0.65439162  0.84238720  0.36053850     0.07900
C2507       C  0.63655580  0.85855515  0.37345786    -0.18900
C2508       C  0.81794903  0.80866070  0.18844478    -0.18100
C2509       C  0.83336798  0.82501384  0.17238770     0.06000
C2510       C  0.85168100  0.84241288  0.15244048     0.07900
C2511       C  0.86736775  0.85712066  0.13534659    -0.18900
C2512       C  0.63629648  0.64281525  0.36656144    -0.18100
C2513       C  0.65161197  0.65517438  0.34764657     0.06000
C2514       C  0.66935303  0.66922603  0.32509516     0.07900
C2515       C  0.68413923  0.68367499  0.30702628    -0.18900
C2516       C  0.63637665  0.85859221  0.12985834    -0.18100
C2517       C  0.65422479  0.84243921  0.14277884     0.06000
C2518       C  0.67513273  0.82405982  0.15840102     0.07900
C2519       C  0.69156848  0.80848160  0.17355524    -0.18900
C2520       C  0.80548084  0.68370369  0.17393361    -0.18100
C2521       C  0.82425463  0.66919677  0.16051805     0.06000
C2522       C  0.84750783  0.65382431  0.14514784     0.07900
C2523       C  0.86674528  0.64022985  0.13154944    -0.18900
C2524       C  0.63614009  0.64282972  0.13671994    -0.18100
C2525       C  0.65146216  0.65519295  0.15562829     0.06000
C2526       C  0.66922162  0.66925432  0.17816268     0.07900
C2527       C  0.68403040  0.68370637  0.19621226    -0.18900
O2528       O  0.68774373  0.73200730  0.72185491    -0.79700
O2529       O  0.78671542  0.70238032  0.78380853    -0.79700
O2530       O  0.76947738  0.72391735  0.67777345    -0.79700
O2531       O  0.72822331  0.70342226  0.78514798    -0.79700
O2532       O  0.78666220  0.70239926  0.71924999    -0.79800
O2533       O  0.68780221  0.73198656  0.78139527    -0.79700
O2534       O  0.76962191  0.72387488  0.82532764    -0.79700
O2535       O  0.72815565  0.70344143  0.71802351    -0.79700
C2536       C  0.70045995  0.70642093  0.71405463     1.10000
C2537       C  0.78657838  0.70421758  0.81227570     1.09900
C2538       C  0.78646553  0.70425442  0.69078306     1.10000
C2539       C  0.70053523  0.70639740  0.78916423     1.09900
O2540       O  0.70711536  0.79845089  0.78191845    -0.79700
O2541       O  0.81235313  0.76686289  0.72243000    -0.79800
O2542       O  0.72015069  0.76402053  0.68725326    -0.79700
O2543       O  0.77277878  0.78406726  0.80175007    -0.79700
O2544       O  0.81240538  0.76684672  0.78061268    -0.79700
O2545       O  0.70706206  0.79847385  0.72133294    -0.79700
O2546       O  0.72026981  0.76397587  0.81596097    -0.79700
O2547       O  0.77268686  0.78409343  0.70136725    -0.79700
Co2548     Co  0.70093551  0.76504519  0.75162182     1.51500
Co2549     Co  0.79322328  0.73692849  0.75153181     1.51700
Co2550     Co  0.75225475  0.74336234  0.71145593     1.51600
Co2551     Co  0.75233010  0.74334113  0.79168693     1.51500
O2552       O  0.74697545  0.75780311  0.75157793    -1.41600
C2553       C  0.70772928  0.78992788  0.80855992     1.09900
C2554       C  0.80017629  0.78622278  0.70524270     1.10000
C2555       C  0.70763189  0.78997144  0.69468699     1.10000
C2556       C  0.80026057  0.78619975  0.79782488     1.09900
C2557       C  0.88648905  0.87644001  0.88747914     0.86900
C2558       C  0.90805391  0.89897363  0.87063683    -0.53300
C2559       C  0.92565520  0.91747411  0.88851271     0.09900
C2560       C  0.91985338  0.91165104  0.92167832     0.20800
C2561       C  0.90647591  0.85659511  0.90816771    -0.54000
C2562       C  0.92394794  0.87523152  0.92630533     0.10000
C2563       C  0.86849720  0.89844805  0.90792749    -0.53600
C2564       C  0.88605133  0.91682268  0.92604240     0.10500
H2565       H  0.90920095  0.90033302  0.84678099     0.15100
H2566       H  0.93415137  0.92684633  0.93628586     0.00800
H2567       H  0.90689613  0.83048572  0.90835300     0.15400
H2568       H  0.84423893  0.89936314  0.90814890     0.15100
C2569       C  0.88751798  0.62114839  0.88927607     0.86900
C2570       C  0.87030128  0.59852130  0.91016586    -0.53300
C2571       C  0.88829735  0.58008983  0.92707272     0.09900
C2572       C  0.92200632  0.58608797  0.92151026     0.20800
C2573       C  0.90878325  0.64109120  0.90920170    -0.54000
C2574       C  0.92708053  0.62256044  0.92612079     0.10000
C2575       C  0.90801146  0.59920107  0.87114482    -0.53600
C2576       C  0.92621071  0.58079521  0.88816360     0.10500
H2577       H  0.84605222  0.59697741  0.91133785     0.15100
H2578       H  0.93667673  0.57093736  0.93536538     0.00800
H2579       H  0.90913748  0.66719759  0.91006743     0.15400
H2580       H  0.90814993  0.59830286  0.84725446     0.15100
C2581       C  0.61635137  0.87900238  0.89021640     0.86900
C2582       C  0.63347176  0.90258283  0.91032676    -0.53300
C2583       C  0.61529293  0.92173946  0.92640940     0.09900
C2584       C  0.58165861  0.91540286  0.92083996     0.20800
C2585       C  0.59510089  0.85997745  0.91068185    -0.54000
C2586       C  0.57681935  0.87914748  0.92680002     0.10000
C2587       C  0.59594126  0.90007222  0.87108662    -0.53600
C2588       C  0.57761532  0.91921751  0.88727466     0.10500
H2589       H  0.65769896  0.90379107  0.91199211     0.15100
H2590       H  0.56683978  0.93103419  0.93406650     0.00800
H2591       H  0.59455579  0.83390690  0.91231301     0.15400
H2592       H  0.59611366  0.90004474  0.84718323     0.15100
C2593       C  0.61763283  0.62429566  0.88739592     0.86900
C2594       C  0.59650608  0.60082510  0.87121498    -0.53300
C2595       C  0.57929124  0.58253879  0.88955703     0.09900
C2596       C  0.58490241  0.58940830  0.92250688     0.20800
C2597       C  0.59714799  0.64434349  0.90756942    -0.54000
C2598       C  0.57983415  0.62585275  0.92610096     0.10000
C2599       C  0.63603381  0.60327532  0.90838400    -0.53600
C2600       C  0.61886106  0.58497016  0.92689891     0.10500
H2601       H  0.59515260  0.59888978  0.84739817     0.15100
H2602       H  0.57089027  0.57428129  0.93743436     0.00800
H2603       H  0.59639637  0.67043216  0.90721704     0.15400
H2604       H  0.66030219  0.60255470  0.90832113     0.15100
N2605       N  0.50216308  0.95055099  0.87913384    -0.36200
N2606       N  0.54756984  0.50050134  0.87567229    -0.56700
N2607       N  0.50249923  0.54933200  0.88013739    -0.36200
N2608       N  0.95703605  0.49971694  0.87610663    -0.56700
C2609       C  0.52611267  0.93311500  0.87127293     0.27400
C2610       C  0.97764070  0.93251409  0.87282414     0.27400
C2611       C  0.52696980  0.56811926  0.87581754     0.27400
C2612       C  0.97847347  0.56767955  0.87463605     0.27400
C2613       C  0.56532896  0.97490804  0.87171555     0.36000
C2614       C  0.56558584  0.52673090  0.87363905     0.36000
C2615       C  0.93909982  0.97356759  0.87299426     0.36000
C2616       C  0.93947397  0.52543925  0.87200000     0.36000
C2617       C  0.51679389  0.90440956  0.85874634    -0.21400
C2618       C  0.98594781  0.90403702  0.85970175    -0.21400
C2619       C  0.51852891  0.59832868  0.86665247    -0.21400
C2620       C  0.98771537  0.59805056  0.86592335    -0.21400
C2621       C  0.59385903  0.98487714  0.86430236    -0.22500
C2622       C  0.59399837  0.51794101  0.86543083    -0.22500
C2623       C  0.91098526  0.98252823  0.86403664    -0.22500
C2624       C  0.91123073  0.51562432  0.86337280    -0.22500
C2625       C  0.55611880  0.94267293  0.87482556    -0.17800
C2626       C  0.94798221  0.94172957  0.87764733    -0.17800
C2627       C  0.94843527  0.55758260  0.87666836    -0.17800
C2628       C  0.55671827  0.55845389  0.87918607    -0.17800
H2629       H  0.53079886  0.88610840  0.84926004     0.15100
H2630       H  0.97125954  0.88547131  0.85091799     0.15100
H2631       H  0.53313690  0.61800016  0.86001567     0.15100
H2632       H  0.97366222  0.61746670  0.85867741     0.15100
H2633       H  0.61219168  0.96980200  0.85776351     0.13300
H2634       H  0.61247890  0.53383699  0.85983657     0.13300
H2635       H  0.89268833  0.96675529  0.85760478     0.13300
H2636       H  0.89309906  0.53082342  0.85653826     0.13300
H2637       H  0.50254724  0.97164832  0.89142303     0.26600
H2638       H  0.50223732  0.52675076  0.88983604     0.26600
C2639       C  0.88634709  0.87645181  0.61551646     0.86900
C2640       C  0.86835587  0.89845903  0.59506110    -0.53300
C2641       C  0.88591172  0.91684679  0.57695676     0.09900
C2642       C  0.91971390  0.91168557  0.58133458     0.20800
C2643       C  0.90635038  0.85662068  0.59483708    -0.54000
C2644       C  0.92382464  0.87526890  0.57670829     0.10000
C2645       C  0.90789709  0.89898837  0.63236938    -0.53600
C2646       C  0.92549850  0.91750118  0.61450265     0.10500
H2647       H  0.84409715  0.89936167  0.59482554     0.15100
H2648       H  0.93401319  0.92689110  0.56673508     0.00800
H2649       H  0.90678606  0.83051184  0.59465763     0.15400
H2650       H  0.90903257  0.90034316  0.65622581     0.15100
C2651       C  0.61618684  0.87902995  0.61307163     0.86900
C2652       C  0.59575180  0.90010567  0.63216466    -0.53300
C2653       C  0.57744802  0.91924786  0.61594247     0.09900
C2654       C  0.58153548  0.91542138  0.58238472     0.20800
C2655       C  0.59496489  0.85999870  0.59258487    -0.54000
C2656       C  0.57670599  0.87916540  0.57643249     0.10000
C2657       C  0.63333371  0.90260259  0.59297541    -0.53600
C2658       C  0.61517619  0.92175174  0.57685959     0.10500
H2659       H  0.59589354  0.90008539  0.65606821     0.15100
H2660       H  0.56673590  0.93104992  0.56912976     0.00800
H2661       H  0.59442397  0.83392785  0.59096251     0.15400
H2662       H  0.65756331  0.90381305  0.59134399     0.15100
N2663       N  0.54577939  0.86870354  0.50159421    -0.36200
N2664       N  0.50006396  0.86278173  0.54631687    -0.56700
N2665       N  0.95419287  0.86468081  0.50152877    -0.36200
N2666       N  0.50013513  0.86274260  0.95680845    -0.56700
C2667       C  0.56276379  0.86265057  0.52548657     0.27400
C2668       C  0.56280074  0.86264462  0.97773142     0.27400
C2669       C  0.93711815  0.85848290  0.52549902     0.27400
C2670       C  0.93715796  0.85845609  0.97753745     0.27400
C2671       C  0.52423481  0.86265174  0.56414796     0.36000
C2672       C  0.97596429  0.86037212  0.56414266     0.36000
C2673       C  0.52433146  0.86261183  0.93901259     0.36000
C2674       C  0.97606181  0.86031092  0.93895009     0.36000
C2675       C  0.59039887  0.85170779  0.51679599    -0.21400
C2676       C  0.59042177  0.85170257  0.98646962    -0.21400
C2677       C  0.90927967  0.84727936  0.51670675    -0.21400
C2678       C  0.90930474  0.84726301  0.98629555    -0.21400
C2679       C  0.51561402  0.85709376  0.59283948    -0.22500
C2680       C  0.98489191  0.85568359  0.59285210    -0.22500
C2681       C  0.51575319  0.85702828  0.91031307    -0.22500
C2682       C  0.98503114  0.85560472  0.91025722    -0.22500
C2683       C  0.55403516  0.86704976  0.55489342    -0.17800
C2684       C  0.55411644  0.86703352  0.94830937    -0.17800
C2685       C  0.94608058  0.86281609  0.94799985    -0.17800
C2686       C  0.94599543  0.86286725  0.55504695    -0.17800
H2687       H  0.60835722  0.84382747  0.53088736     0.15100
H2688       H  0.60840128  0.84381821  0.97240953     0.15100
H2689       H  0.89117557  0.83918700  0.53080413     0.15100
H2690       H  0.89122297  0.83915774  0.97217662     0.15100
H2691       H  0.53014392  0.85321723  0.61146835     0.13300
H2692       H  0.97061553  0.85071464  0.61155418     0.13300
H2693       H  0.53031068  0.85314742  0.89170789     0.13300
H2694       H  0.97078198  0.85062164  0.89153776     0.13300
H2695       H  0.52540646  0.88039767  0.50157538     0.26600
H2696       H  0.97475732  0.87659438  0.50153834     0.26600
C2697       C  0.61747916  0.62431440  0.61587773     0.86900
C2698       C  0.63588697  0.60328052  0.59491139    -0.53300
C2699       C  0.61872161  0.58498231  0.57638604     0.09900
C2700       C  0.58476233  0.58943798  0.58074859     0.20800
C2701       C  0.59701990  0.64436943  0.59567803    -0.54000
C2702       C  0.57971311  0.62588324  0.57713820     0.10000
C2703       C  0.59632685  0.60085667  0.63204759    -0.53600
C2704       C  0.57911874  0.58257709  0.61369493     0.10500
H2705       H  0.66015479  0.60254811  0.59499454     0.15100
H2706       H  0.57075633  0.57431603  0.56581325     0.00800
H2707       H  0.59628191  0.67045887  0.59601734     0.15400
H2708       H  0.59495426  0.59892305  0.65586367     0.15100
N2709       N  0.50198677  0.95058944  0.62396335    -0.36200
N2710       N  0.54738723  0.50053449  0.62749766    -0.56700
N2711       N  0.50231534  0.54937271  0.62300649    -0.36200
N2712       N  0.95685225  0.49975241  0.62694287    -0.56700
C2713       C  0.52592508  0.93315531  0.63186757     0.27400
C2714       C  0.97745653  0.93255833  0.63025895     0.27400
C2715       C  0.52677936  0.56815604  0.62737467     0.27400
C2716       C  0.97827960  0.56771490  0.62847906     0.27400
C2717       C  0.56513989  0.97494356  0.63147398     0.36000
C2718       C  0.56539443  0.52676530  0.62958587     0.36000
C2719       C  0.93890843  0.97360273  0.63000653     0.36000
C2720       C  0.93927750  0.52546963  0.63101884     0.36000
C2721       C  0.51659035  0.90446110  0.64440904    -0.21400
C2722       C  0.98574592  0.90409101  0.64341737    -0.21400
C2723       C  0.51832365  0.59835733  0.63654244    -0.21400
C2724       C  0.98750797  0.59807787  0.63722372    -0.21400
C2725       C  0.59365298  0.98491029  0.63895182    -0.22500
C2726       C  0.59379245  0.51797209  0.63784413    -0.22500
C2727       C  0.91077295  0.98255449  0.63890227    -0.22500
C2728       C  0.91101675  0.51564574  0.63958022    -0.22500
C2729       C  0.55593505  0.94270935  0.62834984    -0.17800
C2730       C  0.94780571  0.94176682  0.62538097    -0.17800
C2731       C  0.94824437  0.55761862  0.62638897    -0.17800
C2732       C  0.55653346  0.55849328  0.62404594    -0.17800
H2733       H  0.53058294  0.88616550  0.65392740     0.15100
H2734       H  0.97104655  0.88553154  0.65219698     0.15100
H2735       H  0.53292143  0.61802421  0.64320947     0.15100
H2736       H  0.97344346  0.61748832  0.64445595     0.15100
H2737       H  0.61197383  0.96983283  0.64552308     0.13300
H2738       H  0.61225996  0.53386573  0.64348448     0.13300
H2739       H  0.89246659  0.96677496  0.64529588     0.13300
H2740       H  0.89287114  0.53083859  0.64638524     0.13300
H2741       H  0.50238612  0.97168069  0.61166022     0.26600
H2742       H  0.50206987  0.52679978  0.61329620     0.26600
N2743       N  0.62410052  0.95430710  0.50163877    -0.36200
N2744       N  0.62979818  0.50348718  0.95714579    -0.56700
N2745       N  0.62769895  0.55310458  0.50164588    -0.36200
N2746       N  0.62968465  0.50349785  0.54614577    -0.56700
C2747       C  0.62899469  0.93577611  0.97780951     0.27400
C2748       C  0.62896156  0.93578233  0.52548248     0.27400
C2749       C  0.63506431  0.57087263  0.97779158     0.27400
C2750       C  0.63499747  0.57087938  0.52551332     0.27400
C2751       C  0.63227979  0.97746041  0.93962924     0.36000
C2752       C  0.63430798  0.52930210  0.93963244     0.36000
C2753       C  0.63216161  0.97746857  0.56366468     0.36000
C2754       C  0.63415533  0.52930663  0.56367104     0.36000
C2755       C  0.63790506  0.90556718  0.98650459    -0.21400
C2756       C  0.63788552  0.90557142  0.51681276    -0.21400
C2757       C  0.64829257  0.59957897  0.98647162    -0.21400
C2758       C  0.64825159  0.59958242  0.51685710    -0.21400
C2759       C  0.64138398  0.98661277  0.91183381    -0.22500
C2760       C  0.64260265  0.51970443  0.91181541    -0.22500
C2761       C  0.64121821  0.98661441  0.59147579    -0.22500
C2762       C  0.64241636  0.51970269  0.59149811    -0.22500
C2763       C  0.62626642  0.94561522  0.94842706    -0.17800
C2764       C  0.62618001  0.94562447  0.55485665    -0.17800
C2765       C  0.63071333  0.56138916  0.55485928    -0.17800
C2766       C  0.63084604  0.56138314  0.94843847    -0.17800
H2767       H  0.64481974  0.88606145  0.97242592     0.15100
H2768       H  0.64477859  0.88606836  0.53090974     0.15100
H2769       H  0.65774761  0.61806424  0.97233985     0.15100
H2770       H  0.65767246  0.61806863  0.53100618     0.15100
H2771       H  0.64741880  0.97094893  0.89387362     0.13300
H2772       H  0.64973310  0.53503379  0.89383025     0.13300
H2773       H  0.64723682  0.97094669  0.60944245     0.13300
H2774       H  0.64951898  0.53502768  0.60949397     0.13300
H2775       H  0.61434332  0.97682322  0.50162827     0.26600
H2776       H  0.61501151  0.53192112  0.50163069     0.26600
N2777       N  0.50348720  0.63522737  0.54673639    -0.36200
N2778       N  0.54907860  0.64074331  0.50159410    -0.56700
N2779       N  0.50356519  0.63519931  0.95638723    -0.36200
N2780       N  0.95790868  0.63763823  0.50152706    -0.56700
C2781       C  0.52775379  0.64200215  0.56355894     0.27400
C2782       C  0.97902185  0.64041937  0.56351433     0.27400
C2783       C  0.52785668  0.64198006  0.93960188     0.27400
C2784       C  0.97912730  0.64040780  0.93957432     0.27400
C2785       C  0.56719051  0.64189189  0.52545421     0.36000
C2786       C  0.56723158  0.64187138  0.97776372     0.36000
C2787       C  0.93975714  0.63837328  0.52530613     0.36000
C2788       C  0.93979945  0.63836212  0.97771542     0.36000
C2789       C  0.51864894  0.65256931  0.59091063    -0.21400
C2790       C  0.98777059  0.65158030  0.59087534    -0.21400
C2791       C  0.51879450  0.65256964  0.91224084    -0.21400
C2792       C  0.98791684  0.65158648  0.91223016    -0.21400
C2793       C  0.59642653  0.64685906  0.51677589    -0.22500
C2794       C  0.59645266  0.64684642  0.98648676    -0.22200
C2795       C  0.91054595  0.64257129  0.51660795    -0.22500
C2796       C  0.91057326  0.64256474  0.98635928    -0.22500
C2797       C  0.55785379  0.63840065  0.55499654    -0.17800
C2798       C  0.94904427  0.63524002  0.55479915    -0.17800
C2799       C  0.94913843  0.63522155  0.94824068    -0.17800
C2800       C  0.55794181  0.63836792  0.94820890    -0.17800
H2801       H  0.53283544  0.66082655  0.60874884     0.15100
H2802       H  0.97332714  0.65898632  0.60865121     0.15100
H2803       H  0.53300816  0.66083651  0.89442652     0.15100
H2804       H  0.97350030  0.65900547  0.89443487     0.15100
H2805       H  0.61545382  0.65116997  0.53097594     0.13300
H2806       H  0.61550308  0.65114787  0.97231518     0.13300
H2807       H  0.89149768  0.64640137  0.53074360     0.13300
H2808       H  0.89154978  0.64638881  0.97218750     0.13300
H2809       H  0.50367244  0.62362771  0.52650077     0.26600
H2810       H  0.50371691  0.62358569  0.97661968     0.26600
C2811       C  0.88733519  0.62118093  0.61368289     0.86900
C2812       C  0.90862268  0.64111921  0.59377170    -0.53300
C2813       C  0.92694393  0.62258501  0.57688504     0.09900
C2814       C  0.92186556  0.58611347  0.58150625     0.20800
C2815       C  0.87014509  0.59854240  0.59278372    -0.54000
C2816       C  0.88816255  0.58010525  0.57590786     0.10000
C2817       C  0.90781329  0.59924186  0.63184813    -0.53600
C2818       C  0.92603549  0.58083392  0.61485952     0.10500
H2819       H  0.90897912  0.66722547  0.59289731     0.15100
H2820       H  0.93655386  0.57096045  0.56767634     0.00800
H2821       H  0.84589760  0.59699719  0.59158205     0.15400
H2822       H  0.90792364  0.59834901  0.65573899     0.15100
N2823       N  0.87952442  0.54725837  0.50148920    -0.36200
N2824       N  0.87413228  0.99797412  0.54607361    -0.56700
N2825       N  0.87649305  0.94876153  0.50149271    -0.36200
N2826       N  0.87424952  0.99796029  0.95689827    -0.56700
C2827       C  0.87224096  0.56489062  0.52526433     0.27400
C2828       C  0.87228558  0.56488311  0.97769188     0.27400
C2829       C  0.87137449  0.93019582  0.52542265     0.27400
C2830       C  0.87144000  0.93018805  0.97755756     0.27400
C2831       C  0.87203348  0.52391498  0.56369315     0.36000
C2832       C  0.87030695  0.97212791  0.56366857     0.36000
C2833       C  0.87217650  0.52390198  0.93927343     0.36000
C2834       C  0.87047122  0.97211509  0.93929823     0.36000
C2835       C  0.85902574  0.59317580  0.51662346    -0.21400
C2836       C  0.85905464  0.59317116  0.98629500    -0.21400
C2837       C  0.86207304  0.89984142  0.51667964    -0.21400
C2838       C  0.86211306  0.89983711  0.98629081    -0.21400
C2839       C  0.86389390  0.51475073  0.59174689    -0.22500
C2840       C  0.86281147  0.98168575  0.59174493    -0.22500
C2841       C  0.86410364  0.51473782  0.91120279    -0.22500
C2842       C  0.86303633  0.98167155  0.91120373    -0.22500
C2843       C  0.87685374  0.55575464  0.55451807    -0.17800
C2844       C  0.87696067  0.55574243  0.94845127    -0.17800
C2845       C  0.87454203  0.94009525  0.94807061    -0.17800
C2846       C  0.87440623  0.94010809  0.55491247    -0.17800
H2847       H  0.84967548  0.61141964  0.53073801     0.15100
H2848       H  0.84973015  0.61141097  0.97215470     0.15100
H2849       H  0.85496561  0.88021155  0.53079784     0.15100
H2850       H  0.85503941  0.88020432  0.97216391     0.15100
H2851       H  0.85820308  0.53039272  0.60983307     0.13300
H2852       H  0.85638003  0.96632268  0.60994485     0.13300
H2853       H  0.85844346  0.53037968  0.89310340     0.13300
H2854       H  0.85664306  0.96630783  0.89299467     0.13300
H2855       H  0.89210646  0.52639233  0.50150584     0.26600
H2856       H  0.88659893  0.97138311  0.50150303     0.26600
C2857       C  0.86751020  0.85711792  0.86764336    -0.18100
C2858       C  0.85182071  0.84240505  0.85055702     0.06000
C2859       C  0.83349786  0.82499465  0.83062839     0.07900
C2860       C  0.81806285  0.80863528  0.81459317    -0.18900
C2861       C  0.86694782  0.64019043  0.87138259    -0.18100
C2862       C  0.84770296  0.65377770  0.85778844     0.06000
C2863       C  0.82442463  0.66914299  0.84245158     0.07900
C2864       C  0.80562371  0.68365337  0.82907630    -0.18900
C2865       C  0.69169130  0.80841788  0.82972428    -0.18100
C2866       C  0.67527624  0.82399395  0.84490046     0.06000
C2867       C  0.65439192  0.84238688  0.86053917     0.07900
C2868       C  0.63655585  0.85855464  0.87345840    -0.18900
C2869       C  0.81794911  0.80866046  0.68844448    -0.18100
C2870       C  0.83336808  0.82501365  0.67238748     0.06000
C2871       C  0.85168106  0.84241290  0.65244041     0.07900
C2872       C  0.86736771  0.85712088  0.63534659    -0.18900
C2873       C  0.63629699  0.64281504  0.86656137    -0.18100
C2874       C  0.65161253  0.65517412  0.84764652     0.06000
C2875       C  0.66935358  0.66922592  0.82509518     0.07900
C2876       C  0.68413977  0.68367512  0.80702647    -0.18900
C2877       C  0.63637655  0.85859252  0.62985867    -0.18100
C2878       C  0.65422458  0.84243960  0.64277937     0.06000
C2879       C  0.67513242  0.82406024  0.65840168     0.07900
C2880       C  0.69156825  0.80848211  0.67355590    -0.18900
C2881       C  0.80548043  0.68370332  0.67393408    -0.18100
C2882       C  0.82425415  0.66919614  0.66051866     0.06000
C2883       C  0.84750731  0.65382347  0.64514858     0.07900
C2884       C  0.86674469  0.64022892  0.63155015    -0.18900
C2885       C  0.63613977  0.64282978  0.63672017    -0.18100
C2886       C  0.65146177  0.65519331  0.65562843     0.06000
C2887       C  0.66922113  0.66925501  0.67816278     0.07900
C2888       C  0.68402984  0.68370712  0.69621240    -0.18900
loop_ 
_geom_bond_atom_site_label_1 
_geom_bond_atom_site_label_2 
_geom_bond_distance 
_geom_bond_site_symmetry_2 
_ccdc_geom_bond_type 
O1            C9   1.264       .  A
O1          Co21   2.009       .  S
O2           C10   1.295       .  A
O2          Co22   2.069       .  S
O3           C11   1.270       .  A
O3          Co23   1.899       .  S
O4           C12   1.259       .  A
O4          Co24   1.987       .  S
O5           C11   1.295       .  A
O5          Co22   2.070       .  S
O6           C12   1.264       .  A
O6          Co21   2.009       .  S
O7           C10   1.270       .  A
O7          Co24   1.899       .  S
O8            C9   1.259       .  A
O8          Co23   1.987       .  S
C9          C361   1.438       .  S
C10         C337   1.435       .  S
C11         C354   1.436       .  S
C12         C349   1.437       .  S
O13          C26   1.261       .  A
O13         Co21   1.971       .  S
O14          C27   1.252       .  A
O14         Co22   1.998       .  S
O15          C28   1.269       .  A
O15         Co23   2.011       .  S
O16          C29   1.244       .  A
O16         Co24   1.965       .  S
O17          C29   1.252       .  A
O17         Co22   1.999       .  S
O18          C28   1.261       .  A
O18         Co21   1.971       .  S
O19          C26   1.269       .  A
O19         Co24   2.011       .  S
O20          C27   1.244       .  A
O20         Co23   1.965       .  S
Co21         O25   2.085       .  S
Co22         O25   2.255       .  S
Co23         O25   1.934       .  S
Co24         O25   1.934       .  S
C26         C338   1.431       .  S
C27         C342   1.435       .  S
C28         C353   1.430       .  S
C29         C333   1.435       .  S
C30          C31   1.538       .  S
C30          C36   1.539       .  S
C30          C34   1.544       .  S
C30         C330   1.468       .  S
C31          H38   1.086       .  S
C31          C32   1.361       .  D
C32          C33   1.547       .  S
C32          C99   1.492       .  S
C33          C37   1.543       .  S
C33          C35   1.542       .  S
C33          H39   1.112       .  S
C34          H40   1.086       .  S
C34          C35   1.368       .  D
C35         C158   1.494       .  S
C36          H41   1.086       .  S
C36          C37   1.363       .  D
C37         C318   1.489       .  S
C42          C43   1.535       .  S
C42          C48   1.541       .  S
C42          C46   1.545       .  S
C42         C334   1.468       .  S
C43          H50   1.087       .  S
C43          C44   1.358       .  D
C44          C45   1.545       .  S
C44         C317   1.486       .  S
C45          C49   1.543       .  S
C45          C47   1.544       .  S
C45          H51   1.112       .  S
C46          H52   1.086       .  S
C46          C47   1.368       .  D
C47         C272   1.498       .  S
C48          H53   1.086       .  S
C48          C49   1.365       .  D
C49         C100   1.490       .  S
C54          C55   1.536       .  S
C54          C60   1.542       .  S
C54          C58   1.539       .  S
C54         C341   1.463       .  S
C55          H62   1.086       .  S
C55          C56   1.360       .  D
C56          C57   1.544       .  S
C56         C236   1.487       .  S
C57          C61   1.544       .  S
C57          C59   1.543       .  S
C57          H63   1.112       .  S
C58          H64   1.086       .  S
C58          C59   1.364       .  D
C59         C157   1.491       .  S
C60          H65   1.086       .  S
C60          C61   1.366       .  D
C61          C98   1.491       .  S
C66          C67   1.535       .  S
C66          C72   1.540       .  S
C66          C70   1.548       .  S
C66         C346   1.471       .  S
C67          H74   1.086       .  S
C67          C68   1.359       .  D
C68          C69   1.543       .  S
C68         C101   1.487       .  S
C69          C73   1.545       .  S
C69          C71   1.544       .  S
C69          H75   1.111       .  S
C70          H76   1.085       .  S
C70          C71   1.371       .  D
C71         C273   1.501       .  S
C72          H77   1.086       .  S
C72          C73   1.363       .  D
C73         C239   1.490       .  S
N78         H110   1.039       .  S
N78          C82   1.350       .  A
N78        C1527   1.350   1_455  A
N79          C87   1.349       .  A
N79         C808   1.349   1_545  A
N80         H111   1.037       .  S
N80          C84   1.349       .  A
N80        C1529   1.350   1_455  A
N81          C89   1.349   1_565  A
N81         C810   1.348       .  A
C82          C90   1.380       .  A
C82          C98   1.403       .  A
C83        N1522   1.350       .  A
C83          C99   1.403       .  A
C83          C91   1.381       .  A
C84          C92   1.381       .  A
C84         C101   1.404       .  A
C85        N1524   1.350       .  A
C85         C100   1.404       .  A
C85          C93   1.380       .  A
C86         N801   1.349       .  A
C86          C98   1.403       .  A
C86          C94   1.377       .  A
C87         C101   1.405       .  A
C87          C95   1.379       .  A
C88         N803   1.348       .  A
C88          C96   1.378       .  A
C88          C99   1.403       .  A
C89          C97   1.378       .  A
C89         C100   1.405       .  A
C90        C1535   1.380   1_455  A
C90         H102   1.082       .  S
C91        C1534   1.380       .  A
C91         H103   1.082       .  S
C92        C1537   1.378   1_455  A
C92         H104   1.081       .  S
C93        C1536   1.378       .  A
C93         H105   1.082       .  S
C94         C817   1.375       .  A
C94         H106   1.081       .  S
C95         C816   1.375   1_545  A
C95         H107   1.080       .  S
C96         C819   1.376       .  A
C96         H108   1.081       .  S
C97         C818   1.376   1_545  A
C97         H109   1.081       .  S
C112        C113   1.539       .  S
C112        C118   1.538       .  S
C112        C116   1.544       .  S
C112        C345   1.468       .  S
C113        H120   1.086       .  S
C113        C114   1.363       .  D
C114        C115   1.543       .  S
C114        C319   1.489       .  S
C115        C119   1.547       .  S
C115        C117   1.542       .  S
C115        H121   1.112       .  S
C116        H122   1.086       .  S
C116        C117   1.368       .  D
C117        C159   1.494       .  S
C118        H123   1.086       .  S
C118        C119   1.361       .  D
C119        C203   1.492       .  S
C124        C125   1.542       .  S
C124        C130   1.536       .  S
C124        C128   1.539       .  S
C124        C350   1.463       .  S
C125        H132   1.086       .  S
C125        C126   1.366       .  D
C126        C127   1.544       .  S
C126        C202   1.491       .  S
C127        C131   1.544       .  S
C127        C129   1.543       .  S
C127        H133   1.112       .  S
C128        H134   1.086       .  S
C128        C129   1.364       .  D
C129        C156   1.491       .  S
C130        H135   1.086       .  S
C130        C131   1.359       .  D
C131        C237   1.487       .  S
N136        H168   1.039       .  S
N136        C140   1.350       .  A
N136        C502   1.350   1_554  A
N137        C144   1.351       .  A
N137       C1589   1.350   1_455  A
N138        H169   1.038       .  S
N138        C142   1.352       .  A
N138        C504   1.352   1_554  A
N139        C146   1.351       .  A
N139       C1591   1.350   1_455  A
C140        C148   1.381       .  A
C140        C156   1.404       .  A
C141        N497   1.350       .  A
C141        C157   1.404       .  A
C141        C149   1.381       .  A
C142        C150   1.381       .  A
C142        C159   1.411       .  A
C143        N499   1.352       .  A
C143        C158   1.411       .  A
C143        C151   1.381       .  A
C144        C156   1.407       .  A
C144        C152   1.378       .  A
C145       N1581   1.350       .  A
C145        C159   1.408       .  A
C145        C153   1.378       .  A
C146        C154   1.378       .  A
C146        C157   1.407       .  A
C147       N1583   1.350       .  A
C147        C155   1.378       .  A
C147        C158   1.408       .  A
C148        C510   1.378   1_554  A
C148        H160   1.082       .  S
C149        C509   1.378       .  A
C149        H161   1.082       .  S
C150        C512   1.381   1_554  A
C150        H162   1.082       .  S
C151        C511   1.381       .  A
C151        H163   1.082       .  S
C152       C1597   1.374   1_455  A
C152        H164   1.080       .  S
C153       C1596   1.374       .  A
C153        H165   1.081       .  S
C154       C1599   1.374   1_455  A
C154        H166   1.080       .  S
C155       C1598   1.374       .  A
C155        H167   1.081       .  S
C170        C171   1.540       .  S
C170        C176   1.535       .  S
C170        C174   1.548       .  S
C170        C358   1.471       .  S
C171        H178   1.086       .  S
C171        C172   1.363       .  D
C172        C173   1.545       .  S
C172        C238   1.491       .  S
C173        C177   1.543       .  S
C173        C175   1.544       .  S
C173        H179   1.112       .  S
C174        H180   1.085       .  S
C174        C175   1.371       .  D
C175        C270   1.501       .  S
C176        H181   1.086       .  S
C176        C177   1.359       .  D
C177        C205   1.487       .  S
N182        H214   1.039       .  S
N182        C186   1.350       .  A
N182       C1631   1.350   1_455  A
N183        C191   1.349       .  A
N183        C912   1.349   1_545  A
N184        H215   1.037       .  S
N184        C188   1.349       .  A
N184       C1633   1.350   1_455  A
N185        C193   1.349   1_565  A
N185        C914   1.348       .  A
C186        C194   1.380       .  A
C186        C202   1.403       .  A
C187       N1626   1.350       .  A
C187        C203   1.403       .  A
C187        C195   1.381       .  A
C188        C196   1.381       .  A
C188        C205   1.404       .  A
C189       N1628   1.350       .  A
C189        C204   1.404       .  A
C189        C197   1.380       .  A
C190        N905   1.349       .  A
C190        C202   1.403       .  A
C190        C198   1.377       .  A
C191        C205   1.405       .  A
C191        C199   1.379       .  A
C192        N907   1.348       .  A
C192        C200   1.378       .  A
C192        C203   1.403       .  A
C193        C201   1.378       .  A
C193        C204   1.405       .  A
C194       C1639   1.380   1_455  A
C194        H206   1.082       .  S
C195       C1638   1.380       .  A
C195        H207   1.082       .  S
C196       C1641   1.378   1_455  A
C196        H208   1.081       .  S
C197       C1640   1.378       .  A
C197        H209   1.082       .  S
C198        C921   1.375       .  A
C198        H210   1.081       .  S
C199        C920   1.375   1_545  A
C199        H211   1.080       .  S
C200        C923   1.376       .  A
C200        H212   1.081       .  S
C201        C922   1.376   1_545  A
C201        H213   1.081       .  S
C204        C291   1.490       .  S
N216        H248   1.039       .  S
N216        C221   1.348       .  A
N216        C581   1.348   1_554  A
N217        C225   1.348       .  A
N217        C946   1.349   1_545  A
N218        H249   1.040       .  S
N218        C223   1.349       .  A
N218        C583   1.349   1_554  A
N219        C227   1.348       .  A
N219        C948   1.349   1_545  A
C220        N577   1.348       .  A
C220        C228   1.381       .  A
C220        C236   1.402       .  A
C221        C237   1.402       .  A
C221        C229   1.381       .  A
C222        N579   1.349       .  A
C222        C230   1.381       .  A
C222        C239   1.402       .  A
C223        C238   1.402       .  A
C223        C231   1.381       .  A
C224        N939   1.349       .  A
C224        C236   1.405       .  A
C224        C232   1.378       .  A
C225        C239   1.403       .  A
C225        C233   1.378       .  A
C226        N941   1.349       .  A
C226        C234   1.378       .  A
C226        C237   1.404       .  A
C227        C235   1.378       .  A
C227        C238   1.403       .  A
C228        C590   1.377       .  A
C228        H240   1.082       .  S
C229        C589   1.377   1_554  A
C229        H241   1.082       .  S
C230        C592   1.380       .  A
C230        H242   1.082       .  S
C231        C591   1.380   1_554  A
C231        H243   1.082       .  S
C232        C955   1.375       .  A
C232        H244   1.081       .  S
C233        C954   1.375   1_545  A
C233        H245   1.081       .  S
C234        C957   1.375       .  A
C234        H246   1.081       .  S
C235        C956   1.375   1_545  A
C235        H247   1.081       .  S
N250        H282   1.038       .  S
N250        C254   1.353       .  A
N250       C1699   1.353   1_455  A
N251        C258   1.353       .  A
N251        C620   1.353   1_554  A
N252        H283   1.038       .  S
N252        C256   1.353       .  A
N252       C1701   1.353   1_455  A
N253        C260   1.352       .  A
N253        C622   1.352   1_554  A
C254        C262   1.381       .  A
C254        C270   1.411       .  A
C255       N1694   1.353       .  A
C255        C271   1.411       .  A
C255        C263   1.381       .  A
C256        C264   1.381       .  A
C256        C273   1.411       .  A
C257       N1696   1.353       .  A
C257        C272   1.411       .  A
C257        C265   1.381       .  A
C258        C270   1.412       .  A
C258        C266   1.378       .  A
C259        N612   1.353       .  A
C259        C273   1.412       .  A
C259        C267   1.378       .  A
C260        C268   1.378       .  A
C260        C271   1.409       .  A
C261        N614   1.352       .  A
C261        C269   1.378       .  A
C261        C272   1.409       .  A
C262       C1707   1.381   1_455  A
C262        H274   1.082       .  S
C263       C1706   1.381       .  A
C263        H275   1.082       .  S
C264       C1709   1.381   1_455  A
C264        H276   1.082       .  S
C265       C1708   1.381       .  A
C265        H277   1.082       .  S
C266        C628   1.376   1_554  A
C266        H278   1.080       .  S
C267        C627   1.376       .  A
C267        H279   1.080       .  S
C268        C630   1.374   1_554  A
C268        H280   1.080       .  S
C269        C629   1.374       .  A
C269        H281   1.080       .  S
C271        C286   1.498       .  S
C284        C285   1.545       .  S
C284        C290   1.542       .  S
C284        C288   1.535       .  S
C284        C357   1.468       .  S
C285        H292   1.086       .  S
C285        C286   1.368       .  D
C286        C287   1.544       .  S
C287        C291   1.542       .  S
C287        C289   1.545       .  S
C287        H293   1.112       .  S
C288        H294   1.086       .  S
C288        C289   1.358       .  D
C289        C316   1.486       .  S
C290        H295   1.086       .  S
C290        C291   1.365       .  D
N296        H328   1.041       .  S
N296        C300   1.348       .  A
N296        C662   1.348   1_554  A
N297        C305   1.348       .  A
N297       C1026   1.347       .  A
N298        H329   1.037       .  S
N298        C302   1.350       .  A
N298        C664   1.350   1_554  A
N299        C307   1.348       .  A
N299       C1028   1.347       .  A
C300        C308   1.381       .  A
C300        C316   1.398       .  A
C301        N657   1.348       .  A
C301        C317   1.398       .  A
C301        C309   1.381       .  A
C302        C310   1.381       .  A
C302        C319   1.407       .  A
C303        N659   1.351       .  A
C303        C318   1.407       .  A
C303        C311   1.381       .  A
C304       N1019   1.347   1_545  A
C304        C316   1.401       .  A
C304        C312   1.377       .  A
C305        C319   1.404       .  A
C305        C313   1.379       .  A
C306       N1021   1.347   1_545  A
C306        C314   1.377       .  A
C306        C317   1.401       .  A
C307        C315   1.379       .  A
C307        C318   1.404       .  A
C308        C670   1.378   1_554  A
C308        H320   1.082       .  S
C309        C669   1.378       .  A
C309        H321   1.082       .  S
C310        C672   1.380   1_554  A
C310        H322   1.082       .  S
C311        C671   1.380       .  A
C311        H323   1.082       .  S
C312       C1035   1.375   1_545  A
C312        H324   1.081       .  S
C313       C1034   1.375       .  A
C313        H325   1.081       .  S
C314       C1037   1.375   1_545  A
C314        H326   1.081       .  S
C315       C1036   1.375       .  A
C315        H327   1.081       .  S
C330        C331   1.206       .  T
C331        C332   1.413       .  S
C332        C333   1.206       .  T
C334        C335   1.206       .  T
C335        C336   1.413       .  S
C336        C337   1.206       .  T
C338        C339   1.203       .  T
C339        C340   1.408       .  S
C340        C341   1.204       .  T
C342        C343   1.206       .  T
C343        C344   1.413       .  S
C344        C345   1.206       .  T
C346        C347   1.208       .  T
C347        C348   1.416       .  S
C348        C349   1.208       .  T
C350        C351   1.204       .  T
C351        C352   1.408       .  S
C352        C353   1.203       .  T
C354        C355   1.206       .  T
C355        C356   1.413       .  S
C356        C357   1.207       .  T
C358        C359   1.208       .  T
C359        C360   1.416       .  S
C360        C361   1.208       .  T
O362        C370   1.264       .  A
O362       Co382   2.009       .  S
O363        C371   1.295       .  A
O363       Co383   2.069       .  S
O364        C372   1.270       .  A
O364       Co384   1.899       .  S
O365        C373   1.259       .  A
O365       Co385   1.987       .  S
O366        C372   1.295       .  A
O366       Co383   2.070       .  S
O367        C373   1.264       .  A
O367       Co382   2.009       .  S
O368        C371   1.270       .  A
O368       Co385   1.899       .  S
O369        C370   1.259       .  A
O369       Co384   1.987       .  S
C370        C722   1.438       .  S
C371        C698   1.435       .  S
C372        C715   1.436       .  S
C373        C710   1.437       .  S
O374        C387   1.261       .  A
O374       Co382   1.971       .  S
O375        C388   1.252       .  A
O375       Co383   1.998       .  S
O376        C389   1.269       .  A
O376       Co384   2.011       .  S
O377        C390   1.244       .  A
O377       Co385   1.965       .  S
O378        C390   1.252       .  A
O378       Co383   1.999       .  S
O379        C389   1.261       .  A
O379       Co382   1.971       .  S
O380        C387   1.269       .  A
O380       Co385   2.011       .  S
O381        C388   1.244       .  A
O381       Co384   1.965       .  S
Co382       O386   2.085       .  S
Co383       O386   2.255       .  S
Co384       O386   1.934       .  S
Co385       O386   1.934       .  S
C387        C699   1.431       .  S
C388        C703   1.435       .  S
C389        C714   1.430       .  S
C390        C694   1.435       .  S
C391        C392   1.538       .  S
C391        C397   1.539       .  S
C391        C395   1.544       .  S
C391        C691   1.468       .  S
C392        H399   1.086       .  S
C392        C393   1.361       .  D
C393        C394   1.547       .  S
C393        C460   1.492       .  S
C394        C398   1.543       .  S
C394        C396   1.542       .  S
C394        H400   1.112       .  S
C395        H401   1.086       .  S
C395        C396   1.368       .  D
C396        C519   1.494       .  S
C397        H402   1.086       .  S
C397        C398   1.363       .  D
C398        C679   1.489       .  S
C403        C404   1.535       .  S
C403        C409   1.541       .  S
C403        C407   1.545       .  S
C403        C695   1.468       .  S
C404        H411   1.087       .  S
C404        C405   1.358       .  D
C405        C406   1.545       .  S
C405        C678   1.486       .  S
C406        C410   1.543       .  S
C406        C408   1.544       .  S
C406        H412   1.112       .  S
C407        H413   1.086       .  S
C407        C408   1.368       .  D
C408        C633   1.498       .  S
C409        H414   1.086       .  S
C409        C410   1.365       .  D
C410        C461   1.490       .  S
C415        C416   1.536       .  S
C415        C421   1.542       .  S
C415        C419   1.539       .  S
C415        C702   1.463       .  S
C416        H423   1.086       .  S
C416        C417   1.360       .  D
C417        C418   1.544       .  S
C417        C597   1.487       .  S
C418        C422   1.544       .  S
C418        C420   1.543       .  S
C418        H424   1.112       .  S
C419        H425   1.086       .  S
C419        C420   1.364       .  D
C420        C518   1.491       .  S
C421        H426   1.086       .  S
C421        C422   1.366       .  D
C422        C459   1.491       .  S
C427        C428   1.535       .  S
C427        C433   1.540       .  S
C427        C431   1.548       .  S
C427        C707   1.471       .  S
C428        H435   1.086       .  S
C428        C429   1.359       .  D
C429        C430   1.543       .  S
C429        C462   1.487       .  S
C430        C434   1.545       .  S
C430        C432   1.544       .  S
C430        H436   1.111       .  S
C431        H437   1.085       .  S
C431        C432   1.371       .  D
C432        C634   1.501       .  S
C433        H438   1.086       .  S
C433        C434   1.363       .  D
C434        C600   1.490       .  S
N439        H471   1.039       .  S
N439       C1888   1.350   1_455  A
N439        C443   1.350       .  A
N440       C1169   1.349   1_545  A
N440        C448   1.349       .  A
N441        H472   1.037       .  S
N441       C1890   1.350   1_455  A
N441        C445   1.349       .  A
N442       C1171   1.348       .  A
N442        C450   1.349   1_565  A
C443        C451   1.380       .  A
C443        C459   1.403       .  A
C444       N1883   1.350       .  A
C444        C460   1.403       .  A
C444        C452   1.381       .  A
C445        C453   1.381       .  A
C445        C462   1.404       .  A
C446       N1885   1.350       .  A
C446        C461   1.404       .  A
C446        C454   1.380       .  A
C447       N1162   1.349       .  A
C447        C459   1.403       .  A
C447        C455   1.377       .  A
C448        C462   1.405       .  A
C448        C456   1.379       .  A
C449       N1164   1.348       .  A
C449        C457   1.378       .  A
C449        C460   1.403       .  A
C450        C458   1.378       .  A
C450        C461   1.405       .  A
C451       C1896   1.380   1_455  A
C451        H463   1.082       .  S
C452       C1895   1.380       .  A
C452        H464   1.082       .  S
C453       C1898   1.378   1_455  A
C453        H465   1.081       .  S
C454       C1897   1.378       .  A
C454        H466   1.082       .  S
C455       C1178   1.375       .  A
C455        H467   1.081       .  S
C456       C1177   1.375   1_545  A
C456        H468   1.080       .  S
C457       C1180   1.376       .  A
C457        H469   1.081       .  S
C458       C1179   1.376   1_545  A
C458        H470   1.081       .  S
C473        C474   1.539       .  S
C473        C479   1.538       .  S
C473        C477   1.544       .  S
C473        C706   1.468       .  S
C474        H481   1.086       .  S
C474        C475   1.363       .  D
C475        C476   1.543       .  S
C475        C680   1.489       .  S
C476        C480   1.547       .  S
C476        C478   1.542       .  S
C476        H482   1.112       .  S
C477        H483   1.086       .  S
C477        C478   1.368       .  D
C478        C520   1.494       .  S
C479        H484   1.086       .  S
C479        C480   1.361       .  D
C480        C564   1.492       .  S
C485        C486   1.542       .  S
C485        C491   1.536       .  S
C485        C489   1.539       .  S
C485        C711   1.463       .  S
C486        H493   1.086       .  S
C486        C487   1.366       .  D
C487        C488   1.544       .  S
C487        C563   1.491       .  S
C488        C492   1.544       .  S
C488        C490   1.543       .  S
C488        H494   1.112       .  S
C489        H495   1.086       .  S
C489        C490   1.364       .  D
C490        C517   1.491       .  S
C491        H496   1.086       .  S
C491        C492   1.359       .  D
C492        C598   1.487       .  S
N497        H529   1.039       .  S
N497        C501   1.350       .  A
N498        C505   1.351       .  A
N498       C1950   1.350   1_455  A
N499        H530   1.038       .  S
N499        C503   1.352       .  A
N500        C507   1.351       .  A
N500       C1952   1.350   1_455  A
C501        C509   1.381       .  A
C501        C517   1.404       .  A
C502        C518   1.404       .  A
C502        C510   1.381       .  A
C503        C511   1.381       .  A
C503        C520   1.411       .  A
C504        C519   1.411       .  A
C504        C512   1.381       .  A
C505        C517   1.407       .  A
C505        C513   1.378       .  A
C506       N1942   1.350       .  A
C506        C520   1.408       .  A
C506        C514   1.378       .  A
C507        C515   1.378       .  A
C507        C518   1.407       .  A
C508       N1944   1.350       .  A
C508        C516   1.378       .  A
C508        C519   1.408       .  A
C509        H521   1.082       .  S
C510        H522   1.082       .  S
C511        H523   1.082       .  S
C512        H524   1.082       .  S
C513       C1958   1.374   1_455  A
C513        H525   1.080       .  S
C514       C1957   1.374       .  A
C514        H526   1.081       .  S
C515       C1960   1.374   1_455  A
C515        H527   1.080       .  S
C516       C1959   1.374       .  A
C516        H528   1.081       .  S
C531        C532   1.540       .  S
C531        C537   1.535       .  S
C531        C535   1.548       .  S
C531        C719   1.471       .  S
C532        H539   1.086       .  S
C532        C533   1.363       .  D
C533        C534   1.545       .  S
C533        C599   1.491       .  S
C534        C538   1.543       .  S
C534        C536   1.544       .  S
C534        H540   1.112       .  S
C535        H541   1.085       .  S
C535        C536   1.371       .  D
C536        C631   1.501       .  S
C537        H542   1.086       .  S
C537        C538   1.359       .  D
C538        C566   1.487       .  S
N543        H575   1.039       .  S
N543       C1992   1.350   1_455  A
N543        C547   1.350       .  A
N544       C1273   1.349   1_545  A
N544        C552   1.349       .  A
N545        H576   1.037       .  S
N545       C1994   1.350   1_455  A
N545        C549   1.349       .  A
N546       C1275   1.348       .  A
N546        C554   1.349   1_565  A
C547        C555   1.380       .  A
C547        C563   1.403       .  A
C548       N1987   1.350       .  A
C548        C564   1.403       .  A
C548        C556   1.381       .  A
C549        C557   1.381       .  A
C549        C566   1.404       .  A
C550       N1989   1.350       .  A
C550        C565   1.404       .  A
C550        C558   1.380       .  A
C551       N1266   1.349       .  A
C551        C563   1.403       .  A
C551        C559   1.377       .  A
C552        C566   1.405       .  A
C552        C560   1.379       .  A
C553       N1268   1.348       .  A
C553        C561   1.378       .  A
C553        C564   1.403       .  A
C554        C562   1.378       .  A
C554        C565   1.405       .  A
C555       C2000   1.380   1_455  A
C555        H567   1.082       .  S
C556       C1999   1.380       .  A
C556        H568   1.082       .  S
C557       C2002   1.378   1_455  A
C557        H569   1.081       .  S
C558       C2001   1.378       .  A
C558        H570   1.082       .  S
C559       C1282   1.375       .  A
C559        H571   1.081       .  S
C560       C1281   1.375   1_545  A
C560        H572   1.080       .  S
C561       C1284   1.376       .  A
C561        H573   1.081       .  S
C562       C1283   1.376   1_545  A
C562        H574   1.081       .  S
C565        C652   1.490       .  S
N577        H609   1.039       .  S
N577        C582   1.348       .  A
N578       C1307   1.349   1_545  A
N578        C586   1.348       .  A
N579        H610   1.040       .  S
N579        C584   1.349       .  A
N580       C1309   1.349   1_545  A
N580        C588   1.348       .  A
C581        C589   1.381       .  A
C581        C597   1.402       .  A
C582        C598   1.402       .  A
C582        C590   1.381       .  A
C583        C591   1.381       .  A
C583        C600   1.402       .  A
C584        C599   1.402       .  A
C584        C592   1.381       .  A
C585       N1300   1.349       .  A
C585        C597   1.405       .  A
C585        C593   1.378       .  A
C586        C600   1.403       .  A
C586        C594   1.378       .  A
C587       N1302   1.349       .  A
C587        C595   1.378       .  A
C587        C598   1.404       .  A
C588        C596   1.378       .  A
C588        C599   1.403       .  A
C589        H601   1.082       .  S
C590        H602   1.082       .  S
C591        H603   1.082       .  S
C592        H604   1.082       .  S
C593       C1316   1.375       .  A
C593        H605   1.081       .  S
C594       C1315   1.375   1_545  A
C594        H606   1.081       .  S
C595       C1318   1.375       .  A
C595        H607   1.081       .  S
C596       C1317   1.375   1_545  A
C596        H608   1.081       .  S
N611        H643   1.038       .  S
N611       C2060   1.353   1_455  A
N611        C615   1.353       .  A
N612        C619   1.353       .  A
N613        H644   1.038       .  S
N613       C2062   1.353   1_455  A
N613        C617   1.353       .  A
N614        C621   1.352       .  A
C615        C623   1.381       .  A
C615        C631   1.411       .  A
C616       N2055   1.353       .  A
C616        C632   1.411       .  A
C616        C624   1.381       .  A
C617        C625   1.381       .  A
C617        C634   1.411       .  A
C618       N2057   1.353       .  A
C618        C633   1.411       .  A
C618        C626   1.381       .  A
C619        C631   1.412       .  A
C619        C627   1.378       .  A
C620        C634   1.412       .  A
C620        C628   1.378       .  A
C621        C629   1.378       .  A
C621        C632   1.409       .  A
C622        C630   1.378       .  A
C622        C633   1.409       .  A
C623       C2068   1.381   1_455  A
C623        H635   1.082       .  S
C624       C2067   1.381       .  A
C624        H636   1.082       .  S
C625       C2070   1.381   1_455  A
C625        H637   1.082       .  S
C626       C2069   1.381       .  A
C626        H638   1.082       .  S
C627        H639   1.080       .  S
C628        H640   1.080       .  S
C629        H641   1.080       .  S
C630        H642   1.080       .  S
C632        C647   1.498       .  S
C645        C646   1.545       .  S
C645        C651   1.542       .  S
C645        C649   1.535       .  S
C645        C718   1.468       .  S
C646        H653   1.086       .  S
C646        C647   1.368       .  D
C647        C648   1.544       .  S
C648        C652   1.542       .  S
C648        C650   1.545       .  S
C648        H654   1.112       .  S
C649        H655   1.086       .  S
C649        C650   1.358       .  D
C650        C677   1.486       .  S
C651        H656   1.086       .  S
C651        C652   1.365       .  D
N657        H689   1.041       .  S
N657        C661   1.348       .  A
N658       C1387   1.347       .  A
N658        C666   1.348       .  A
N659        H690   1.037       .  S
N659        C663   1.350       .  A
N660       C1389   1.347       .  A
N660        C668   1.348       .  A
C661        C669   1.381       .  A
C661        C677   1.398       .  A
C662        C678   1.398       .  A
C662        C670   1.381       .  A
C663        C671   1.381       .  A
C663        C680   1.407       .  A
C664        C679   1.407       .  A
C664        C672   1.381       .  A
C665       N1380   1.347   1_545  A
C665        C677   1.401       .  A
C665        C673   1.377       .  A
C666        C680   1.404       .  A
C666        C674   1.379       .  A
C667       N1382   1.347   1_545  A
C667        C675   1.377       .  A
C667        C678   1.401       .  A
C668        C676   1.379       .  A
C668        C679   1.404       .  A
C669        H681   1.082       .  S
C670        H682   1.082       .  S
C671        H683   1.082       .  S
C672        H684   1.082       .  S
C673       C1396   1.375   1_545  A
C673        H685   1.081       .  S
C674       C1395   1.375       .  A
C674        H686   1.081       .  S
C675       C1398   1.375   1_545  A
C675        H687   1.081       .  S
C676       C1397   1.375       .  A
C676        H688   1.081       .  S
C691        C692   1.206       .  T
C692        C693   1.413       .  S
C693        C694   1.206       .  T
C695        C696   1.206       .  T
C696        C697   1.413       .  S
C697        C698   1.206       .  T
C699        C700   1.203       .  T
C700        C701   1.408       .  S
C701        C702   1.204       .  T
C703        C704   1.206       .  T
C704        C705   1.413       .  S
C705        C706   1.206       .  T
C707        C708   1.208       .  T
C708        C709   1.416       .  S
C709        C710   1.208       .  T
C711        C712   1.204       .  T
C712        C713   1.408       .  S
C713        C714   1.203       .  T
C715        C716   1.206       .  T
C716        C717   1.413       .  S
C717        C718   1.207       .  T
C719        C720   1.208       .  T
C720        C721   1.416       .  S
C721        C722   1.208       .  T
O723        C731   1.264       .  A
O723       Co743   2.009       .  S
O724        C732   1.295       .  A
O724       Co744   2.069       .  S
O725        C733   1.270       .  A
O725       Co745   1.899       .  S
O726        C734   1.259       .  A
O726       Co746   1.987       .  S
O727        C733   1.295       .  A
O727       Co744   2.070       .  S
O728        C734   1.264       .  A
O728       Co743   2.009       .  S
O729        C732   1.270       .  A
O729       Co746   1.899       .  S
O730        C731   1.259       .  A
O730       Co745   1.987       .  S
C731       C1083   1.438       .  S
C732       C1059   1.435       .  S
C733       C1076   1.436       .  S
C734       C1071   1.437       .  S
O735        C748   1.261       .  A
O735       Co743   1.971       .  S
O736        C749   1.252       .  A
O736       Co744   1.998       .  S
O737        C750   1.269       .  A
O737       Co745   2.011       .  S
O738        C751   1.244       .  A
O738       Co746   1.965       .  S
O739        C751   1.252       .  A
O739       Co744   1.999       .  S
O740        C750   1.261       .  A
O740       Co743   1.971       .  S
O741        C748   1.269       .  A
O741       Co746   2.011       .  S
O742        C749   1.244       .  A
O742       Co745   1.965       .  S
Co743       O747   2.085       .  S
Co744       O747   2.255       .  S
Co745       O747   1.934       .  S
Co746       O747   1.934       .  S
C748       C1060   1.430       .  S
C749       C1064   1.435       .  S
C750       C1075   1.430       .  S
C751       C1055   1.435       .  S
C752        C753   1.538       .  S
C752        C758   1.539       .  S
C752        C756   1.544       .  S
C752       C1052   1.468       .  S
C753        H760   1.086       .  S
C753        C754   1.361       .  D
C754        C755   1.547       .  S
C754        C821   1.492       .  S
C755        C759   1.543       .  S
C755        C757   1.542       .  S
C755        H761   1.112       .  S
C756        H762   1.086       .  S
C756        C757   1.368       .  D
C757        C880   1.494       .  S
C758        H763   1.086       .  S
C758        C759   1.363       .  D
C759       C1040   1.489       .  S
C764        C765   1.535       .  S
C764        C770   1.541       .  S
C764        C768   1.545       .  S
C764       C1056   1.468       .  S
C765        H772   1.087       .  S
C765        C766   1.358       .  D
C766        C767   1.545       .  S
C766       C1039   1.486       .  S
C767        C771   1.543       .  S
C767        C769   1.544       .  S
C767        H773   1.112       .  S
C768        H774   1.086       .  S
C768        C769   1.368       .  D
C769        C994   1.498       .  S
C770        H775   1.086       .  S
C770        C771   1.365       .  D
C771        C822   1.490       .  S
C776        C777   1.536       .  S
C776        C782   1.542       .  S
C776        C780   1.539       .  S
C776       C1063   1.463       .  S
C777        H784   1.086       .  S
C777        C778   1.360       .  D
C778        C779   1.544       .  S
C778        C958   1.487       .  S
C779        C783   1.544       .  S
C779        C781   1.543       .  S
C779        H785   1.112       .  S
C780        H786   1.086       .  S
C780        C781   1.364       .  D
C781        C879   1.491       .  S
C782        H787   1.086       .  S
C782        C783   1.366       .  D
C783        C820   1.491       .  S
C788        C789   1.535       .  S
C788        C794   1.540       .  S
C788        C792   1.548       .  S
C788       C1068   1.471       .  S
C789        H796   1.086       .  S
C789        C790   1.359       .  D
C790        C791   1.543       .  S
C790        C823   1.487       .  S
C791        C795   1.545       .  S
C791        C793   1.544       .  S
C791        H797   1.111       .  S
C792        H798   1.085       .  S
C792        C793   1.371       .  D
C793        C995   1.501       .  S
C794        H799   1.086       .  S
C794        C795   1.363       .  D
C795        C961   1.490       .  S
N800        H832   1.039       .  S
N800       C2249   1.350   1_455  A
N800        C804   1.350       .  A
N801        C809   1.349       .  A
N802        H833   1.037       .  S
N802       C2251   1.350   1_455  A
N802        C806   1.349       .  A
N803        C811   1.349       .  A
C804        C812   1.380       .  A
C804        C820   1.403       .  A
C805       N2244   1.350       .  A
C805        C821   1.403       .  A
C805        C813   1.381       .  A
C806        C814   1.381       .  A
C806        C823   1.404       .  A
C807       N2246   1.350       .  A
C807        C822   1.404       .  A
C807        C815   1.380       .  A
C808        C820   1.403       .  A
C808        C816   1.377       .  A
C809        C823   1.405       .  A
C809        C817   1.379       .  A
C810        C818   1.378       .  A
C810        C821   1.403       .  A
C811        C819   1.378       .  A
C811        C822   1.405       .  A
C812       C2257   1.380   1_455  A
C812        H824   1.082       .  S
C813       C2256   1.380       .  A
C813        H825   1.082       .  S
C814       C2259   1.378   1_455  A
C814        H826   1.081       .  S
C815       C2258   1.378       .  A
C815        H827   1.082       .  S
C816        H828   1.081       .  S
C817        H829   1.080       .  S
C818        H830   1.081       .  S
C819        H831   1.081       .  S
C834        C835   1.539       .  S
C834        C840   1.538       .  S
C834        C838   1.544       .  S
C834       C1067   1.468       .  S
C835        H842   1.086       .  S
C835        C836   1.363       .  D
C836        C837   1.543       .  S
C836       C1041   1.489       .  S
C837        C841   1.547       .  S
C837        C839   1.542       .  S
C837        H843   1.112       .  S
C838        H844   1.086       .  S
C838        C839   1.368       .  D
C839        C881   1.494       .  S
C840        H845   1.086       .  S
C840        C841   1.361       .  D
C841        C925   1.492       .  S
C846        C847   1.542       .  S
C846        C852   1.536       .  S
C846        C850   1.539       .  S
C846       C1072   1.463       .  S
C847        H854   1.086       .  S
C847        C848   1.366       .  D
C848        C849   1.544       .  S
C848        C924   1.491       .  S
C849        C853   1.544       .  S
C849        C851   1.543       .  S
C849        H855   1.112       .  S
C850        H856   1.086       .  S
C850        C851   1.364       .  D
C851        C878   1.491       .  S
C852        H857   1.086       .  S
C852        C853   1.359       .  D
C853        C959   1.487       .  S
N858        H890   1.039       .  S
N858       C1224   1.350   1_554  A
N858        C862   1.350       .  A
N859        C866   1.351       .  A
N859       C2311   1.350   1_455  A
N860        H891   1.038       .  S
N860       C1226   1.352   1_554  A
N860        C864   1.352       .  A
N861        C868   1.351       .  A
N861       C2313   1.350   1_455  A
C862        C870   1.381       .  A
C862        C878   1.404       .  A
C863       N1219   1.350       .  A
C863        C879   1.404       .  A
C863        C871   1.381       .  A
C864        C872   1.381       .  A
C864        C881   1.411       .  A
C865       N1221   1.352       .  A
C865        C880   1.411       .  A
C865        C873   1.381       .  A
C866        C878   1.407       .  A
C866        C874   1.378       .  A
C867       N2303   1.350       .  A
C867        C881   1.408       .  A
C867        C875   1.378       .  A
C868        C876   1.378       .  A
C868        C879   1.407       .  A
C869       N2305   1.350       .  A
C869        C877   1.378       .  A
C869        C880   1.408       .  A
C870       C1232   1.378   1_554  A
C870        H882   1.082       .  S
C871       C1231   1.378       .  A
C871        H883   1.082       .  S
C872       C1234   1.381   1_554  A
C872        H884   1.082       .  S
C873       C1233   1.381       .  A
C873        H885   1.082       .  S
C874       C2319   1.374   1_455  A
C874        H886   1.080       .  S
C875       C2318   1.374       .  A
C875        H887   1.081       .  S
C876       C2321   1.374   1_455  A
C876        H888   1.080       .  S
C877       C2320   1.374       .  A
C877        H889   1.081       .  S
C892        C893   1.540       .  S
C892        C898   1.535       .  S
C892        C896   1.548       .  S
C892       C1080   1.471       .  S
C893        H900   1.086       .  S
C893        C894   1.363       .  D
C894        C895   1.545       .  S
C894        C960   1.491       .  S
C895        C899   1.543       .  S
C895        C897   1.544       .  S
C895        H901   1.112       .  S
C896        H902   1.085       .  S
C896        C897   1.371       .  D
C897        C992   1.501       .  S
C898        H903   1.086       .  S
C898        C899   1.359       .  D
C899        C927   1.487       .  S
N904        H936   1.039       .  S
N904       C2353   1.350   1_455  A
N904        C908   1.350       .  A
N905        C913   1.349       .  A
N906        H937   1.037       .  S
N906       C2355   1.350   1_455  A
N906        C910   1.349       .  A
N907        C915   1.349       .  A
C908        C916   1.380       .  A
C908        C924   1.403       .  A
C909       N2348   1.350       .  A
C909        C925   1.403       .  A
C909        C917   1.381       .  A
C910        C918   1.381       .  A
C910        C927   1.404       .  A
C911       N2350   1.350       .  A
C911        C926   1.404       .  A
C911        C919   1.380       .  A
C912        C924   1.403       .  A
C912        C920   1.377       .  A
C913        C927   1.405       .  A
C913        C921   1.379       .  A
C914        C922   1.378       .  A
C914        C925   1.403       .  A
C915        C923   1.378       .  A
C915        C926   1.405       .  A
C916       C2361   1.380   1_455  A
C916        H928   1.082       .  S
C917       C2360   1.380       .  A
C917        H929   1.082       .  S
C918       C2363   1.378   1_455  A
C918        H930   1.081       .  S
C919       C2362   1.378       .  A
C919        H931   1.082       .  S
C920        H932   1.081       .  S
C921        H933   1.080       .  S
C922        H934   1.081       .  S
C923        H935   1.081       .  S
C926       C1013   1.490       .  S
N938        H970   1.039       .  S
N938        C943   1.348       .  A
N938       C1303   1.348   1_554  A
N939        C947   1.348       .  A
N940        H971   1.040       .  S
N940        C945   1.349       .  A
N940       C1305   1.349   1_554  A
N941        C949   1.348       .  A
C942       N1299   1.348       .  A
C942        C950   1.381       .  A
C942        C958   1.402       .  A
C943        C959   1.402       .  A
C943        C951   1.381       .  A
C944       N1301   1.349       .  A
C944        C952   1.381       .  A
C944        C961   1.402       .  A
C945        C960   1.402       .  A
C945        C953   1.381       .  A
C946        C958   1.405       .  A
C946        C954   1.378       .  A
C947        C961   1.403       .  A
C947        C955   1.378       .  A
C948        C956   1.378       .  A
C948        C959   1.404       .  A
C949        C957   1.378       .  A
C949        C960   1.403       .  A
C950       C1312   1.377       .  A
C950        H962   1.082       .  S
C951       C1311   1.377   1_554  A
C951        H963   1.082       .  S
C952       C1314   1.380       .  A
C952        H964   1.082       .  S
C953       C1313   1.380   1_554  A
C953        H965   1.082       .  S
C954        H966   1.081       .  S
C955        H967   1.081       .  S
C956        H968   1.081       .  S
C957        H969   1.081       .  S
N972       H1004   1.038       .  S
N972       C2421   1.353   1_455  A
N972        C976   1.353       .  A
N973        C980   1.353       .  A
N973       C1342   1.353   1_554  A
N974       H1005   1.038       .  S
N974       C2423   1.353   1_455  A
N974        C978   1.353       .  A
N975        C982   1.352       .  A
N975       C1344   1.352   1_554  A
C976        C984   1.381       .  A
C976        C992   1.411       .  A
C977       N2416   1.353       .  A
C977        C993   1.411       .  A
C977        C985   1.381       .  A
C978        C986   1.381       .  A
C978        C995   1.411       .  A
C979       N2418   1.353       .  A
C979        C994   1.411       .  A
C979        C987   1.381       .  A
C980        C992   1.412       .  A
C980        C988   1.378       .  A
C981       N1334   1.353       .  A
C981        C995   1.412       .  A
C981        C989   1.378       .  A
C982        C990   1.378       .  A
C982        C993   1.409       .  A
C983       N1336   1.352       .  A
C983        C991   1.378       .  A
C983        C994   1.409       .  A
C984       C2429   1.381   1_455  A
C984        H996   1.082       .  S
C985       C2428   1.381       .  A
C985        H997   1.082       .  S
C986       C2431   1.381   1_455  A
C986        H998   1.082       .  S
C987       C2430   1.381       .  A
C987        H999   1.082       .  S
C988       C1350   1.376   1_554  A
C988       H1000   1.080       .  S
C989       C1349   1.376       .  A
C989       H1001   1.080       .  S
C990       C1352   1.374   1_554  A
C990       H1002   1.080       .  S
C991       C1351   1.374       .  A
C991       H1003   1.080       .  S
C993       C1008   1.498       .  S
C1006      C1007   1.545       .  S
C1006      C1012   1.541       .  S
C1006      C1010   1.535       .  S
C1006      C1079   1.468       .  S
C1007      H1014   1.086       .  S
C1007      C1008   1.368       .  D
C1008      C1009   1.544       .  S
C1009      C1013   1.542       .  S
C1009      C1011   1.545       .  S
C1009      H1015   1.112       .  S
C1010      H1016   1.087       .  S
C1010      C1011   1.358       .  D
C1011      C1038   1.486       .  S
C1012      H1017   1.086       .  S
C1012      C1013   1.365       .  D
N1018      H1050   1.041       .  S
N1018      C1384   1.348   1_554  A
N1018      C1022   1.348       .  A
N1019      C1027   1.348       .  A
N1020      H1051   1.037       .  S
N1020      C1386   1.350   1_554  A
N1020      C1024   1.350       .  A
N1021      C1029   1.348       .  A
C1022      C1030   1.381       .  A
C1022      C1038   1.398       .  A
C1023      N1379   1.348       .  A
C1023      C1039   1.398       .  A
C1023      C1031   1.381       .  A
C1024      C1032   1.381       .  A
C1024      C1041   1.407       .  A
C1025      N1381   1.350       .  A
C1025      C1040   1.407       .  A
C1025      C1033   1.381       .  A
C1026      C1038   1.401       .  A
C1026      C1034   1.377       .  A
C1027      C1041   1.404       .  A
C1027      C1035   1.379       .  A
C1028      C1036   1.377       .  A
C1028      C1039   1.401       .  A
C1029      C1037   1.379       .  A
C1029      C1040   1.404       .  A
C1030      C1392   1.378   1_554  A
C1030      H1042   1.082       .  S
C1031      C1391   1.378       .  A
C1031      H1043   1.082       .  S
C1032      C1394   1.380   1_554  A
C1032      H1044   1.082       .  S
C1033      C1393   1.380       .  A
C1033      H1045   1.082       .  S
C1034      H1046   1.081       .  S
C1035      H1047   1.081       .  S
C1036      H1048   1.081       .  S
C1037      H1049   1.081       .  S
C1052      C1053   1.206       .  T
C1053      C1054   1.413       .  S
C1054      C1055   1.206       .  T
C1056      C1057   1.206       .  T
C1057      C1058   1.413       .  S
C1058      C1059   1.206       .  T
C1060      C1061   1.203       .  T
C1061      C1062   1.408       .  S
C1062      C1063   1.204       .  T
C1064      C1065   1.206       .  T
C1065      C1066   1.413       .  S
C1066      C1067   1.206       .  T
C1068      C1069   1.208       .  T
C1069      C1070   1.416       .  S
C1070      C1071   1.208       .  T
C1072      C1073   1.204       .  T
C1073      C1074   1.408       .  S
C1074      C1075   1.203       .  T
C1076      C1077   1.206       .  T
C1077      C1078   1.413       .  S
C1078      C1079   1.207       .  T
C1080      C1081   1.208       .  T
C1081      C1082   1.416       .  S
C1082      C1083   1.208       .  T
O1084      C1092   1.264       .  A
O1084     Co1104   2.009       .  S
O1085      C1093   1.295       .  A
O1085     Co1105   2.069       .  S
O1086      C1094   1.270       .  A
O1086     Co1106   1.899       .  S
O1087      C1095   1.259       .  A
O1087     Co1107   1.987       .  S
O1088      C1094   1.295       .  A
O1088     Co1105   2.070       .  S
O1089      C1095   1.264       .  A
O1089     Co1104   2.009       .  S
O1090      C1093   1.270       .  A
O1090     Co1107   1.899       .  S
O1091      C1092   1.259       .  A
O1091     Co1106   1.987       .  S
C1092      C1444   1.438       .  S
C1093      C1420   1.435       .  S
C1094      C1437   1.436       .  S
C1095      C1432   1.437       .  S
O1096      C1109   1.261       .  A
O1096     Co1104   1.971       .  S
O1097      C1110   1.252       .  A
O1097     Co1105   1.998       .  S
O1098      C1111   1.269       .  A
O1098     Co1106   2.011       .  S
O1099      C1112   1.244       .  A
O1099     Co1107   1.965       .  S
O1100      C1112   1.252       .  A
O1100     Co1105   1.999       .  S
O1101      C1111   1.261       .  A
O1101     Co1104   1.971       .  S
O1102      C1109   1.269       .  A
O1102     Co1107   2.011       .  S
O1103      C1110   1.244       .  A
O1103     Co1106   1.965       .  S
Co1104     O1108   2.085       .  S
Co1105     O1108   2.255       .  S
Co1106     O1108   1.934       .  S
Co1107     O1108   1.934       .  S
C1109      C1421   1.430       .  S
C1110      C1425   1.435       .  S
C1111      C1436   1.430       .  S
C1112      C1416   1.435       .  S
C1113      C1114   1.538       .  S
C1113      C1119   1.539       .  S
C1113      C1117   1.544       .  S
C1113      C1413   1.468       .  S
C1114      H1121   1.086       .  S
C1114      C1115   1.361       .  D
C1115      C1116   1.547       .  S
C1115      C1182   1.492       .  S
C1116      C1120   1.543       .  S
C1116      C1118   1.542       .  S
C1116      H1122   1.112       .  S
C1117      H1123   1.086       .  S
C1117      C1118   1.368       .  D
C1118      C1241   1.494       .  S
C1119      H1124   1.086       .  S
C1119      C1120   1.363       .  D
C1120      C1401   1.489       .  S
C1125      C1126   1.535       .  S
C1125      C1131   1.541       .  S
C1125      C1129   1.545       .  S
C1125      C1417   1.468       .  S
C1126      H1133   1.087       .  S
C1126      C1127   1.358       .  D
C1127      C1128   1.545       .  S
C1127      C1400   1.486       .  S
C1128      C1132   1.543       .  S
C1128      C1130   1.544       .  S
C1128      H1134   1.112       .  S
C1129      H1135   1.086       .  S
C1129      C1130   1.368       .  D
C1130      C1355   1.498       .  S
C1131      H1136   1.086       .  S
C1131      C1132   1.365       .  D
C1132      C1183   1.490       .  S
C1137      C1138   1.536       .  S
C1137      C1143   1.542       .  S
C1137      C1141   1.539       .  S
C1137      C1424   1.463       .  S
C1138      H1145   1.086       .  S
C1138      C1139   1.360       .  D
C1139      C1140   1.544       .  S
C1139      C1319   1.487       .  S
C1140      C1144   1.544       .  S
C1140      C1142   1.543       .  S
C1140      H1146   1.112       .  S
C1141      H1147   1.086       .  S
C1141      C1142   1.364       .  D
C1142      C1240   1.491       .  S
C1143      H1148   1.086       .  S
C1143      C1144   1.366       .  D
C1144      C1181   1.491       .  S
C1149      C1150   1.535       .  S
C1149      C1155   1.540       .  S
C1149      C1153   1.548       .  S
C1149      C1429   1.471       .  S
C1150      H1157   1.086       .  S
C1150      C1151   1.359       .  D
C1151      C1152   1.543       .  S
C1151      C1184   1.487       .  S
C1152      C1156   1.545       .  S
C1152      C1154   1.544       .  S
C1152      H1158   1.111       .  S
C1153      H1159   1.085       .  S
C1153      C1154   1.371       .  D
C1154      C1356   1.501       .  S
C1155      H1160   1.086       .  S
C1155      C1156   1.363       .  D
C1156      C1322   1.490       .  S
N1161      H1193   1.039       .  S
N1161      C2610   1.350   1_455  A
N1161      C1165   1.350       .  A
N1162      C1170   1.349       .  A
N1163      H1194   1.037       .  S
N1163      C2612   1.350   1_455  A
N1163      C1167   1.349       .  A
N1164      C1172   1.349       .  A
C1165      C1173   1.380       .  A
C1165      C1181   1.403       .  A
C1166      N2605   1.350       .  A
C1166      C1182   1.403       .  A
C1166      C1174   1.381       .  A
C1167      C1175   1.381       .  A
C1167      C1184   1.404       .  A
C1168      N2607   1.350       .  A
C1168      C1183   1.404       .  A
C1168      C1176   1.380       .  A
C1169      C1181   1.403       .  A
C1169      C1177   1.377       .  A
C1170      C1184   1.405       .  A
C1170      C1178   1.379       .  A
C1171      C1179   1.378       .  A
C1171      C1182   1.403       .  A
C1172      C1180   1.378       .  A
C1172      C1183   1.405       .  A
C1173      C2618   1.380   1_455  A
C1173      H1185   1.082       .  S
C1174      C2617   1.380       .  A
C1174      H1186   1.082       .  S
C1175      C2620   1.378   1_455  A
C1175      H1187   1.081       .  S
C1176      C2619   1.378       .  A
C1176      H1188   1.082       .  S
C1177      H1189   1.081       .  S
C1178      H1190   1.080       .  S
C1179      H1191   1.081       .  S
C1180      H1192   1.081       .  S
C1195      C1196   1.539       .  S
C1195      C1201   1.538       .  S
C1195      C1199   1.544       .  S
C1195      C1428   1.468       .  S
C1196      H1203   1.086       .  S
C1196      C1197   1.363       .  D
C1197      C1198   1.543       .  S
C1197      C1402   1.489       .  S
C1198      C1202   1.547       .  S
C1198      C1200   1.542       .  S
C1198      H1204   1.112       .  S
C1199      H1205   1.086       .  S
C1199      C1200   1.368       .  D
C1200      C1242   1.494       .  S
C1201      H1206   1.086       .  S
C1201      C1202   1.361       .  D
C1202      C1286   1.492       .  S
C1207      C1208   1.542       .  S
C1207      C1213   1.536       .  S
C1207      C1211   1.539       .  S
C1207      C1433   1.463       .  S
C1208      H1215   1.086       .  S
C1208      C1209   1.366       .  D
C1209      C1210   1.544       .  S
C1209      C1285   1.491       .  S
C1210      C1214   1.544       .  S
C1210      C1212   1.543       .  S
C1210      H1216   1.112       .  S
C1211      H1217   1.086       .  S
C1211      C1212   1.364       .  D
C1212      C1239   1.491       .  S
C1213      H1218   1.086       .  S
C1213      C1214   1.359       .  D
C1214      C1320   1.487       .  S
N1219      H1251   1.039       .  S
N1219      C1223   1.350       .  A
N1220      C1227   1.351       .  A
N1220      C2672   1.350   1_455  A
N1221      H1252   1.038       .  S
N1221      C1225   1.352       .  A
N1222      C1229   1.351       .  A
N1222      C2674   1.350   1_455  A
C1223      C1231   1.381       .  A
C1223      C1239   1.404       .  A
C1224      C1240   1.404       .  A
C1224      C1232   1.381       .  A
C1225      C1233   1.381       .  A
C1225      C1242   1.411       .  A
C1226      C1241   1.411       .  A
C1226      C1234   1.381       .  A
C1227      C1239   1.407       .  A
C1227      C1235   1.378       .  A
C1228      N2664   1.350       .  A
C1228      C1242   1.408       .  A
C1228      C1236   1.378       .  A
C1229      C1237   1.378       .  A
C1229      C1240   1.407       .  A
C1230      N2666   1.350       .  A
C1230      C1238   1.378       .  A
C1230      C1241   1.408       .  A
C1231      H1243   1.082       .  S
C1232      H1244   1.082       .  S
C1233      H1245   1.082       .  S
C1234      H1246   1.082       .  S
C1235      C2680   1.374   1_455  A
C1235      H1247   1.080       .  S
C1236      C2679   1.374       .  A
C1236      H1248   1.081       .  S
C1237      C2682   1.374   1_455  A
C1237      H1249   1.080       .  S
C1238      C2681   1.374       .  A
C1238      H1250   1.081       .  S
C1253      C1254   1.540       .  S
C1253      C1259   1.535       .  S
C1253      C1257   1.548       .  S
C1253      C1441   1.471       .  S
C1254      H1261   1.086       .  S
C1254      C1255   1.363       .  D
C1255      C1256   1.545       .  S
C1255      C1321   1.491       .  S
C1256      C1260   1.543       .  S
C1256      C1258   1.544       .  S
C1256      H1262   1.112       .  S
C1257      H1263   1.085       .  S
C1257      C1258   1.371       .  D
C1258      C1353   1.501       .  S
C1259      H1264   1.086       .  S
C1259      C1260   1.359       .  D
C1260      C1288   1.487       .  S
N1265      H1297   1.039       .  S
N1265      C2714   1.350   1_455  A
N1265      C1269   1.350       .  A
N1266      C1274   1.349       .  A
N1267      H1298   1.037       .  S
N1267      C2716   1.350   1_455  A
N1267      C1271   1.349       .  A
N1268      C1276   1.349       .  A
C1269      C1277   1.380       .  A
C1269      C1285   1.403       .  A
C1270      N2709   1.350       .  A
C1270      C1286   1.403       .  A
C1270      C1278   1.381       .  A
C1271      C1279   1.381       .  A
C1271      C1288   1.404       .  A
C1272      N2711   1.350       .  A
C1272      C1287   1.404       .  A
C1272      C1280   1.380       .  A
C1273      C1285   1.403       .  A
C1273      C1281   1.377       .  A
C1274      C1288   1.405       .  A
C1274      C1282   1.379       .  A
C1275      C1283   1.378       .  A
C1275      C1286   1.403       .  A
C1276      C1284   1.378       .  A
C1276      C1287   1.405       .  A
C1277      C2722   1.380   1_455  A
C1277      H1289   1.082       .  S
C1278      C2721   1.380       .  A
C1278      H1290   1.082       .  S
C1279      C2724   1.378   1_455  A
C1279      H1291   1.081       .  S
C1280      C2723   1.378       .  A
C1280      H1292   1.082       .  S
C1281      H1293   1.081       .  S
C1282      H1294   1.080       .  S
C1283      H1295   1.081       .  S
C1284      H1296   1.081       .  S
C1287      C1374   1.490       .  S
N1299      H1331   1.039       .  S
N1299      C1304   1.348       .  A
N1300      C1308   1.348       .  A
N1301      H1332   1.040       .  S
N1301      C1306   1.349       .  A
N1302      C1310   1.348       .  A
C1303      C1311   1.381       .  A
C1303      C1319   1.402       .  A
C1304      C1320   1.402       .  A
C1304      C1312   1.381       .  A
C1305      C1313   1.381       .  A
C1305      C1322   1.402       .  A
C1306      C1321   1.402       .  A
C1306      C1314   1.381       .  A
C1307      C1319   1.405       .  A
C1307      C1315   1.378       .  A
C1308      C1322   1.403       .  A
C1308      C1316   1.378       .  A
C1309      C1317   1.378       .  A
C1309      C1320   1.404       .  A
C1310      C1318   1.378       .  A
C1310      C1321   1.403       .  A
C1311      H1323   1.082       .  S
C1312      H1324   1.082       .  S
C1313      H1325   1.082       .  S
C1314      H1326   1.082       .  S
C1315      H1327   1.081       .  S
C1316      H1328   1.081       .  S
C1317      H1329   1.081       .  S
C1318      H1330   1.081       .  S
N1333      H1365   1.038       .  S
N1333      C2782   1.353   1_455  A
N1333      C1337   1.353       .  A
N1334      C1341   1.353       .  A
N1335      H1366   1.038       .  S
N1335      C2784   1.353   1_455  A
N1335      C1339   1.353       .  A
N1336      C1343   1.352       .  A
C1337      C1345   1.381       .  A
C1337      C1353   1.411       .  A
C1338      N2777   1.353       .  A
C1338      C1354   1.411       .  A
C1338      C1346   1.381       .  A
C1339      C1347   1.381       .  A
C1339      C1356   1.411       .  A
C1340      N2779   1.353       .  A
C1340      C1355   1.411       .  A
C1340      C1348   1.381       .  A
C1341      C1353   1.412       .  A
C1341      C1349   1.378       .  A
C1342      C1356   1.412       .  A
C1342      C1350   1.378       .  A
C1343      C1351   1.378       .  A
C1343      C1354   1.409       .  A
C1344      C1352   1.378       .  A
C1344      C1355   1.409       .  A
C1345      C2790   1.381   1_455  A
C1345      H1357   1.082       .  S
C1346      C2789   1.381       .  A
C1346      H1358   1.082       .  S
C1347      C2792   1.381   1_455  A
C1347      H1359   1.082       .  S
C1348      C2791   1.381       .  A
C1348      H1360   1.082       .  S
C1349      H1361   1.080       .  S
C1350      H1362   1.080       .  S
C1351      H1363   1.080       .  S
C1352      H1364   1.080       .  S
C1354      C1369   1.498       .  S
C1367      C1368   1.545       .  S
C1367      C1373   1.541       .  S
C1367      C1371   1.535       .  S
C1367      C1440   1.468       .  S
C1368      H1375   1.086       .  S
C1368      C1369   1.368       .  D
C1369      C1370   1.544       .  S
C1370      C1374   1.542       .  S
C1370      C1372   1.545       .  S
C1370      H1376   1.112       .  S
C1371      H1377   1.087       .  S
C1371      C1372   1.358       .  D
C1372      C1399   1.486       .  S
C1373      H1378   1.086       .  S
C1373      C1374   1.365       .  D
N1379      H1411   1.041       .  S
N1379      C1383   1.348       .  A
N1380      C1388   1.348       .  A
N1381      H1412   1.037       .  S
N1381      C1385   1.350       .  A
N1382      C1390   1.348       .  A
C1383      C1391   1.381       .  A
C1383      C1399   1.398       .  A
C1384      C1400   1.398       .  A
C1384      C1392   1.381       .  A
C1385      C1393   1.381       .  A
C1385      C1402   1.407       .  A
C1386      C1401   1.407       .  A
C1386      C1394   1.381       .  A
C1387      C1399   1.401       .  A
C1387      C1395   1.377       .  A
C1388      C1402   1.404       .  A
C1388      C1396   1.379       .  A
C1389      C1397   1.377       .  A
C1389      C1400   1.401       .  A
C1390      C1398   1.379       .  A
C1390      C1401   1.404       .  A
C1391      H1403   1.082       .  S
C1392      H1404   1.082       .  S
C1393      H1405   1.082       .  S
C1394      H1406   1.082       .  S
C1395      H1407   1.081       .  S
C1396      H1408   1.081       .  S
C1397      H1409   1.081       .  S
C1398      H1410   1.081       .  S
C1413      C1414   1.206       .  T
C1414      C1415   1.413       .  S
C1415      C1416   1.206       .  T
C1417      C1418   1.206       .  T
C1418      C1419   1.413       .  S
C1419      C1420   1.206       .  T
C1421      C1422   1.203       .  T
C1422      C1423   1.408       .  S
C1423      C1424   1.204       .  T
C1425      C1426   1.206       .  T
C1426      C1427   1.413       .  S
C1427      C1428   1.206       .  T
C1429      C1430   1.208       .  T
C1430      C1431   1.416       .  S
C1431      C1432   1.208       .  T
C1433      C1434   1.204       .  T
C1434      C1435   1.408       .  S
C1435      C1436   1.203       .  T
C1437      C1438   1.206       .  T
C1438      C1439   1.413       .  S
C1439      C1440   1.207       .  T
C1441      C1442   1.208       .  T
C1442      C1443   1.416       .  S
C1443      C1444   1.208       .  T
O1445      C1453   1.264       .  A
O1445     Co1465   2.009       .  S
O1446      C1454   1.295       .  A
O1446     Co1466   2.069       .  S
O1447      C1455   1.270       .  A
O1447     Co1467   1.899       .  S
O1448      C1456   1.259       .  A
O1448     Co1468   1.987       .  S
O1449      C1455   1.295       .  A
O1449     Co1466   2.070       .  S
O1450      C1456   1.264       .  A
O1450     Co1465   2.009       .  S
O1451      C1454   1.270       .  A
O1451     Co1468   1.899       .  S
O1452      C1453   1.259       .  A
O1452     Co1467   1.987       .  S
C1453      C1805   1.438       .  S
C1454      C1781   1.435       .  S
C1455      C1798   1.436       .  S
C1456      C1793   1.437       .  S
O1457      C1470   1.261       .  A
O1457     Co1465   1.971       .  S
O1458      C1471   1.252       .  A
O1458     Co1466   1.998       .  S
O1459      C1472   1.269       .  A
O1459     Co1467   2.011       .  S
O1460      C1473   1.244       .  A
O1460     Co1468   1.965       .  S
O1461      C1473   1.252       .  A
O1461     Co1466   1.999       .  S
O1462      C1472   1.261       .  A
O1462     Co1465   1.971       .  S
O1463      C1470   1.269       .  A
O1463     Co1468   2.011       .  S
O1464      C1471   1.244       .  A
O1464     Co1467   1.965       .  S
Co1465     O1469   2.085       .  S
Co1466     O1469   2.255       .  S
Co1467     O1469   1.934       .  S
Co1468     O1469   1.934       .  S
C1470      C1782   1.431       .  S
C1471      C1786   1.435       .  S
C1472      C1797   1.430       .  S
C1473      C1777   1.435       .  S
C1474      C1475   1.538       .  S
C1474      C1480   1.539       .  S
C1474      C1478   1.544       .  S
C1474      C1774   1.468       .  S
C1475      H1482   1.086       .  S
C1475      C1476   1.361       .  D
C1476      C1477   1.547       .  S
C1476      C1543   1.492       .  S
C1477      C1481   1.543       .  S
C1477      C1479   1.542       .  S
C1477      H1483   1.112       .  S
C1478      H1484   1.086       .  S
C1478      C1479   1.368       .  D
C1479      C1602   1.494       .  S
C1480      H1485   1.086       .  S
C1480      C1481   1.363       .  D
C1481      C1762   1.489       .  S
C1486      C1487   1.535       .  S
C1486      C1492   1.541       .  S
C1486      C1490   1.545       .  S
C1486      C1778   1.468       .  S
C1487      H1494   1.087       .  S
C1487      C1488   1.358       .  D
C1488      C1489   1.545       .  S
C1488      C1761   1.486       .  S
C1489      C1493   1.543       .  S
C1489      C1491   1.544       .  S
C1489      H1495   1.112       .  S
C1490      H1496   1.086       .  S
C1490      C1491   1.368       .  D
C1491      C1716   1.498       .  S
C1492      H1497   1.086       .  S
C1492      C1493   1.365       .  D
C1493      C1544   1.490       .  S
C1498      C1499   1.536       .  S
C1498      C1504   1.542       .  S
C1498      C1502   1.539       .  S
C1498      C1785   1.463       .  S
C1499      H1506   1.086       .  S
C1499      C1500   1.360       .  D
C1500      C1501   1.544       .  S
C1500      C1680   1.487       .  S
C1501      C1505   1.544       .  S
C1501      C1503   1.543       .  S
C1501      H1507   1.112       .  S
C1502      H1508   1.086       .  S
C1502      C1503   1.364       .  D
C1503      C1601   1.491       .  S
C1504      H1509   1.086       .  S
C1504      C1505   1.366       .  D
C1505      C1542   1.491       .  S
C1510      C1511   1.535       .  S
C1510      C1516   1.540       .  S
C1510      C1514   1.548       .  S
C1510      C1790   1.471       .  S
C1511      H1518   1.086       .  S
C1511      C1512   1.359       .  D
C1512      C1513   1.543       .  S
C1512      C1545   1.487       .  S
C1513      C1517   1.545       .  S
C1513      C1515   1.544       .  S
C1513      H1519   1.111       .  S
C1514      H1520   1.085       .  S
C1514      C1515   1.371       .  D
C1515      C1717   1.501       .  S
C1516      H1521   1.086       .  S
C1516      C1517   1.363       .  D
C1517      C1683   1.490       .  S
N1522      H1554   1.039       .  S
N1522      C1526   1.350       .  A
N1523      C2252   1.349   1_545  A
N1523      C1531   1.349       .  A
N1524      H1555   1.037       .  S
N1524      C1528   1.349       .  A
N1525      C2254   1.348       .  A
N1525      C1533   1.349   1_565  A
C1526      C1534   1.380       .  A
C1526      C1542   1.403       .  A
C1527      C1543   1.403       .  A
C1527      C1535   1.381       .  A
C1528      C1536   1.381       .  A
C1528      C1545   1.404       .  A
C1529      C1544   1.404       .  A
C1529      C1537   1.380       .  A
C1530      N2245   1.349       .  A
C1530      C1542   1.403       .  A
C1530      C1538   1.377       .  A
C1531      C1545   1.405       .  A
C1531      C1539   1.379       .  A
C1532      N2247   1.348       .  A
C1532      C1540   1.378       .  A
C1532      C1543   1.403       .  A
C1533      C1541   1.378       .  A
C1533      C1544   1.405       .  A
C1534      H1546   1.082       .  S
C1535      H1547   1.082       .  S
C1536      H1548   1.081       .  S
C1537      H1549   1.082       .  S
C1538      C2261   1.375       .  A
C1538      H1550   1.081       .  S
C1539      C2260   1.375   1_545  A
C1539      H1551   1.080       .  S
C1540      C2263   1.376       .  A
C1540      H1552   1.081       .  S
C1541      C2262   1.376   1_545  A
C1541      H1553   1.081       .  S
C1556      C1557   1.539       .  S
C1556      C1562   1.538       .  S
C1556      C1560   1.544       .  S
C1556      C1789   1.468       .  S
C1557      H1564   1.086       .  S
C1557      C1558   1.363       .  D
C1558      C1559   1.543       .  S
C1558      C1763   1.489       .  S
C1559      C1563   1.547       .  S
C1559      C1561   1.542       .  S
C1559      H1565   1.112       .  S
C1560      H1566   1.086       .  S
C1560      C1561   1.368       .  D
C1561      C1603   1.494       .  S
C1562      H1567   1.086       .  S
C1562      C1563   1.361       .  D
C1563      C1647   1.492       .  S
C1568      C1569   1.542       .  S
C1568      C1574   1.536       .  S
C1568      C1572   1.539       .  S
C1568      C1794   1.463       .  S
C1569      H1576   1.086       .  S
C1569      C1570   1.366       .  D
C1570      C1571   1.544       .  S
C1570      C1646   1.491       .  S
C1571      C1575   1.544       .  S
C1571      C1573   1.543       .  S
C1571      H1577   1.112       .  S
C1572      H1578   1.086       .  S
C1572      C1573   1.364       .  D
C1573      C1600   1.491       .  S
C1574      H1579   1.086       .  S
C1574      C1575   1.359       .  D
C1575      C1681   1.487       .  S
N1580      H1612   1.039       .  S
N1580      C1946   1.350   1_554  A
N1580      C1584   1.350       .  A
N1581      C1588   1.351       .  A
N1582      H1613   1.038       .  S
N1582      C1948   1.352   1_554  A
N1582      C1586   1.352       .  A
N1583      C1590   1.351       .  A
C1584      C1592   1.381       .  A
C1584      C1600   1.404       .  A
C1585      N1941   1.350       .  A
C1585      C1601   1.404       .  A
C1585      C1593   1.381       .  A
C1586      C1594   1.381       .  A
C1586      C1603   1.411       .  A
C1587      N1943   1.352       .  A
C1587      C1602   1.411       .  A
C1587      C1595   1.381       .  A
C1588      C1600   1.407       .  A
C1588      C1596   1.378       .  A
C1589      C1603   1.408       .  A
C1589      C1597   1.378       .  A
C1590      C1598   1.378       .  A
C1590      C1601   1.407       .  A
C1591      C1599   1.378       .  A
C1591      C1602   1.408       .  A
C1592      C1954   1.378   1_554  A
C1592      H1604   1.082       .  S
C1593      C1953   1.378       .  A
C1593      H1605   1.082       .  S
C1594      C1956   1.381   1_554  A
C1594      H1606   1.082       .  S
C1595      C1955   1.381       .  A
C1595      H1607   1.082       .  S
C1596      H1608   1.080       .  S
C1597      H1609   1.081       .  S
C1598      H1610   1.080       .  S
C1599      H1611   1.081       .  S
C1614      C1615   1.540       .  S
C1614      C1620   1.535       .  S
C1614      C1618   1.548       .  S
C1614      C1802   1.471       .  S
C1615      H1622   1.086       .  S
C1615      C1616   1.363       .  D
C1616      C1617   1.545       .  S
C1616      C1682   1.491       .  S
C1617      C1621   1.543       .  S
C1617      C1619   1.544       .  S
C1617      H1623   1.112       .  S
C1618      H1624   1.085       .  S
C1618      C1619   1.371       .  D
C1619      C1714   1.501       .  S
C1620      H1625   1.086       .  S
C1620      C1621   1.359       .  D
C1621      C1649   1.487       .  S
N1626      H1658   1.039       .  S
N1626      C1630   1.350       .  A
N1627      C2356   1.349   1_545  A
N1627      C1635   1.349       .  A
N1628      H1659   1.037       .  S
N1628      C1632   1.349       .  A
N1629      C2358   1.348       .  A
N1629      C1637   1.349   1_565  A
C1630      C1638   1.380       .  A
C1630      C1646   1.403       .  A
C1631      C1647   1.403       .  A
C1631      C1639   1.381       .  A
C1632      C1640   1.381       .  A
C1632      C1649   1.404       .  A
C1633      C1648   1.404       .  A
C1633      C1641   1.380       .  A
C1634      N2349   1.349       .  A
C1634      C1646   1.403       .  A
C1634      C1642   1.377       .  A
C1635      C1649   1.405       .  A
C1635      C1643   1.379       .  A
C1636      N2351   1.348       .  A
C1636      C1644   1.378       .  A
C1636      C1647   1.403       .  A
C1637      C1645   1.378       .  A
C1637      C1648   1.405       .  A
C1638      H1650   1.082       .  S
C1639      H1651   1.082       .  S
C1640      H1652   1.081       .  S
C1641      H1653   1.082       .  S
C1642      C2365   1.375       .  A
C1642      H1654   1.081       .  S
C1643      C2364   1.375   1_545  A
C1643      H1655   1.080       .  S
C1644      C2367   1.376       .  A
C1644      H1656   1.081       .  S
C1645      C2366   1.376   1_545  A
C1645      H1657   1.081       .  S
C1648      C1735   1.490       .  S
N1660      H1692   1.039       .  S
N1660      C1665   1.348       .  A
N1660      C2025   1.348   1_554  A
N1661      C2390   1.349   1_545  A
N1661      C1669   1.348       .  A
N1662      H1693   1.040       .  S
N1662      C1667   1.349       .  A
N1662      C2027   1.349   1_554  A
N1663      C2392   1.349   1_545  A
N1663      C1671   1.348       .  A
C1664      N2021   1.348       .  A
C1664      C1672   1.381       .  A
C1664      C1680   1.402       .  A
C1665      C1681   1.402       .  A
C1665      C1673   1.381       .  A
C1666      N2023   1.349       .  A
C1666      C1674   1.381       .  A
C1666      C1683   1.402       .  A
C1667      C1682   1.402       .  A
C1667      C1675   1.381       .  A
C1668      N2383   1.349       .  A
C1668      C1680   1.405       .  A
C1668      C1676   1.378       .  A
C1669      C1683   1.403       .  A
C1669      C1677   1.378       .  A
C1670      N2385   1.349       .  A
C1670      C1678   1.378       .  A
C1670      C1681   1.404       .  A
C1671      C1679   1.378       .  A
C1671      C1682   1.403       .  A
C1672      C2034   1.377       .  A
C1672      H1684   1.082       .  S
C1673      C2033   1.377   1_554  A
C1673      H1685   1.082       .  S
C1674      C2036   1.380       .  A
C1674      H1686   1.082       .  S
C1675      C2035   1.380   1_554  A
C1675      H1687   1.082       .  S
C1676      C2399   1.375       .  A
C1676      H1688   1.081       .  S
C1677      C2398   1.375   1_545  A
C1677      H1689   1.081       .  S
C1678      C2401   1.375       .  A
C1678      H1690   1.081       .  S
C1679      C2400   1.375   1_545  A
C1679      H1691   1.081       .  S
N1694      H1726   1.038       .  S
N1694      C1698   1.353       .  A
N1695      C1702   1.353       .  A
N1695      C2064   1.353   1_554  A
N1696      H1727   1.038       .  S
N1696      C1700   1.353       .  A
N1697      C1704   1.352       .  A
N1697      C2066   1.352   1_554  A
C1698      C1706   1.381       .  A
C1698      C1714   1.411       .  A
C1699      C1715   1.411       .  A
C1699      C1707   1.381       .  A
C1700      C1708   1.381       .  A
C1700      C1717   1.411       .  A
C1701      C1716   1.411       .  A
C1701      C1709   1.381       .  A
C1702      C1714   1.412       .  A
C1702      C1710   1.378       .  A
C1703      N2056   1.353       .  A
C1703      C1717   1.412       .  A
C1703      C1711   1.378       .  A
C1704      C1712   1.378       .  A
C1704      C1715   1.409       .  A
C1705      N2058   1.352       .  A
C1705      C1713   1.378       .  A
C1705      C1716   1.409       .  A
C1706      H1718   1.082       .  S
C1707      H1719   1.082       .  S
C1708      H1720   1.082       .  S
C1709      H1721   1.082       .  S
C1710      C2072   1.376   1_554  A
C1710      H1722   1.080       .  S
C1711      C2071   1.376       .  A
C1711      H1723   1.080       .  S
C1712      C2074   1.374   1_554  A
C1712      H1724   1.080       .  S
C1713      C2073   1.374       .  A
C1713      H1725   1.080       .  S
C1715      C1730   1.498       .  S
C1728      C1729   1.545       .  S
C1728      C1734   1.542       .  S
C1728      C1732   1.535       .  S
C1728      C1801   1.468       .  S
C1729      H1736   1.086       .  S
C1729      C1730   1.368       .  D
C1730      C1731   1.544       .  S
C1731      C1735   1.542       .  S
C1731      C1733   1.545       .  S
C1731      H1737   1.112       .  S
C1732      H1738   1.086       .  S
C1732      C1733   1.358       .  D
C1733      C1760   1.486       .  S
C1734      H1739   1.086       .  S
C1734      C1735   1.365       .  D
N1740      H1772   1.041       .  S
N1740      C2106   1.348   1_554  A
N1740      C1744   1.348       .  A
N1741      C2470   1.347       .  A
N1741      C1749   1.348       .  A
N1742      H1773   1.037       .  S
N1742      C2108   1.350   1_554  A
N1742      C1746   1.350       .  A
N1743      C2472   1.347       .  A
N1743      C1751   1.348       .  A
C1744      C1752   1.381       .  A
C1744      C1760   1.398       .  A
C1745      N2101   1.348       .  A
C1745      C1761   1.398       .  A
C1745      C1753   1.381       .  A
C1746      C1754   1.381       .  A
C1746      C1763   1.407       .  A
C1747      N2103   1.350       .  A
C1747      C1762   1.407       .  A
C1747      C1755   1.381       .  A
C1748      N2463   1.347   1_545  A
C1748      C1760   1.401       .  A
C1748      C1756   1.377       .  A
C1749      C1763   1.404       .  A
C1749      C1757   1.379       .  A
C1750      N2465   1.347   1_545  A
C1750      C1758   1.377       .  A
C1750      C1761   1.401       .  A
C1751      C1759   1.379       .  A
C1751      C1762   1.404       .  A
C1752      C2114   1.378   1_554  A
C1752      H1764   1.082       .  S
C1753      C2113   1.378       .  A
C1753      H1765   1.082       .  S
C1754      C2116   1.380   1_554  A
C1754      H1766   1.082       .  S
C1755      C2115   1.380       .  A
C1755      H1767   1.082       .  S
C1756      C2479   1.375   1_545  A
C1756      H1768   1.081       .  S
C1757      C2478   1.375       .  A
C1757      H1769   1.081       .  S
C1758      C2481   1.375   1_545  A
C1758      H1770   1.081       .  S
C1759      C2480   1.375       .  A
C1759      H1771   1.081       .  S
C1774      C1775   1.206       .  T
C1775      C1776   1.413       .  S
C1776      C1777   1.206       .  T
C1778      C1779   1.206       .  T
C1779      C1780   1.413       .  S
C1780      C1781   1.206       .  T
C1782      C1783   1.203       .  T
C1783      C1784   1.408       .  S
C1784      C1785   1.204       .  T
C1786      C1787   1.206       .  T
C1787      C1788   1.413       .  S
C1788      C1789   1.206       .  T
C1790      C1791   1.208       .  T
C1791      C1792   1.416       .  S
C1792      C1793   1.208       .  T
C1794      C1795   1.204       .  T
C1795      C1796   1.408       .  S
C1796      C1797   1.203       .  T
C1798      C1799   1.206       .  T
C1799      C1800   1.413       .  S
C1800      C1801   1.207       .  T
C1802      C1803   1.208       .  T
C1803      C1804   1.416       .  S
C1804      C1805   1.208       .  T
O1806      C1814   1.264       .  A
O1806     Co1826   2.009       .  S
O1807      C1815   1.295       .  A
O1807     Co1827   2.069       .  S
O1808      C1816   1.270       .  A
O1808     Co1828   1.899       .  S
O1809      C1817   1.259       .  A
O1809     Co1829   1.987       .  S
O1810      C1816   1.295       .  A
O1810     Co1827   2.070       .  S
O1811      C1817   1.264       .  A
O1811     Co1826   2.009       .  S
O1812      C1815   1.270       .  A
O1812     Co1829   1.899       .  S
O1813      C1814   1.259       .  A
O1813     Co1828   1.987       .  S
C1814      C2166   1.438       .  S
C1815      C2142   1.435       .  S
C1816      C2159   1.436       .  S
C1817      C2154   1.437       .  S
O1818      C1831   1.261       .  A
O1818     Co1826   1.971       .  S
O1819      C1832   1.252       .  A
O1819     Co1827   1.998       .  S
O1820      C1833   1.269       .  A
O1820     Co1828   2.011       .  S
O1821      C1834   1.244       .  A
O1821     Co1829   1.965       .  S
O1822      C1834   1.252       .  A
O1822     Co1827   1.999       .  S
O1823      C1833   1.261       .  A
O1823     Co1826   1.971       .  S
O1824      C1831   1.269       .  A
O1824     Co1829   2.011       .  S
O1825      C1832   1.244       .  A
O1825     Co1828   1.965       .  S
Co1826     O1830   2.085       .  S
Co1827     O1830   2.255       .  S
Co1828     O1830   1.934       .  S
Co1829     O1830   1.934       .  S
C1831      C2143   1.431       .  S
C1832      C2147   1.435       .  S
C1833      C2158   1.430       .  S
C1834      C2138   1.435       .  S
C1835      C1836   1.538       .  S
C1835      C1841   1.539       .  S
C1835      C1839   1.544       .  S
C1835      C2135   1.468       .  S
C1836      H1843   1.086       .  S
C1836      C1837   1.361       .  D
C1837      C1838   1.547       .  S
C1837      C1904   1.492       .  S
C1838      C1842   1.543       .  S
C1838      C1840   1.542       .  S
C1838      H1844   1.112       .  S
C1839      H1845   1.086       .  S
C1839      C1840   1.368       .  D
C1840      C1963   1.494       .  S
C1841      H1846   1.086       .  S
C1841      C1842   1.363       .  D
C1842      C2123   1.489       .  S
C1847      C1848   1.535       .  S
C1847      C1853   1.541       .  S
C1847      C1851   1.545       .  S
C1847      C2139   1.468       .  S
C1848      H1855   1.087       .  S
C1848      C1849   1.358       .  D
C1849      C1850   1.545       .  S
C1849      C2122   1.486       .  S
C1850      C1854   1.543       .  S
C1850      C1852   1.544       .  S
C1850      H1856   1.112       .  S
C1851      H1857   1.086       .  S
C1851      C1852   1.368       .  D
C1852      C2077   1.498       .  S
C1853      H1858   1.086       .  S
C1853      C1854   1.365       .  D
C1854      C1905   1.490       .  S
C1859      C1860   1.536       .  S
C1859      C1865   1.542       .  S
C1859      C1863   1.539       .  S
C1859      C2146   1.463       .  S
C1860      H1867   1.086       .  S
C1860      C1861   1.360       .  D
C1861      C1862   1.544       .  S
C1861      C2041   1.487       .  S
C1862      C1866   1.544       .  S
C1862      C1864   1.543       .  S
C1862      H1868   1.112       .  S
C1863      H1869   1.086       .  S
C1863      C1864   1.364       .  D
C1864      C1962   1.491       .  S
C1865      H1870   1.086       .  S
C1865      C1866   1.366       .  D
C1866      C1903   1.491       .  S
C1871      C1872   1.535       .  S
C1871      C1877   1.540       .  S
C1871      C1875   1.548       .  S
C1871      C2151   1.471       .  S
C1872      H1879   1.086       .  S
C1872      C1873   1.359       .  D
C1873      C1874   1.543       .  S
C1873      C1906   1.487       .  S
C1874      C1878   1.545       .  S
C1874      C1876   1.544       .  S
C1874      H1880   1.111       .  S
C1875      H1881   1.085       .  S
C1875      C1876   1.371       .  D
C1876      C2078   1.501       .  S
C1877      H1882   1.086       .  S
C1877      C1878   1.363       .  D
C1878      C2044   1.490       .  S
N1883      H1915   1.039       .  S
N1883      C1887   1.350       .  A
N1884      C2613   1.349   1_545  A
N1884      C1892   1.349       .  A
N1885      H1916   1.037       .  S
N1885      C1889   1.349       .  A
N1886      C2615   1.348       .  A
N1886      C1894   1.349   1_565  A
C1887      C1895   1.380       .  A
C1887      C1903   1.403       .  A
C1888      C1904   1.403       .  A
C1888      C1896   1.381       .  A
C1889      C1897   1.381       .  A
C1889      C1906   1.404       .  A
C1890      C1905   1.404       .  A
C1890      C1898   1.380       .  A
C1891      N2606   1.349       .  A
C1891      C1903   1.403       .  A
C1891      C1899   1.377       .  A
C1892      C1906   1.405       .  A
C1892      C1900   1.379       .  A
C1893      N2608   1.348       .  A
C1893      C1901   1.378       .  A
C1893      C1904   1.403       .  A
C1894      C1902   1.378       .  A
C1894      C1905   1.405       .  A
C1895      H1907   1.082       .  S
C1896      H1908   1.082       .  S
C1897      H1909   1.081       .  S
C1898      H1910   1.082       .  S
C1899      C2622   1.375       .  A
C1899      H1911   1.081       .  S
C1900      C2621   1.375   1_545  A
C1900      H1912   1.080       .  S
C1901      C2624   1.376       .  A
C1901      H1913   1.081       .  S
C1902      C2623   1.376   1_545  A
C1902      H1914   1.081       .  S
C1917      C1918   1.539       .  S
C1917      C1923   1.538       .  S
C1917      C1921   1.544       .  S
C1917      C2150   1.468       .  S
C1918      H1925   1.086       .  S
C1918      C1919   1.363       .  D
C1919      C1920   1.543       .  S
C1919      C2124   1.489       .  S
C1920      C1924   1.547       .  S
C1920      C1922   1.542       .  S
C1920      H1926   1.112       .  S
C1921      H1927   1.086       .  S
C1921      C1922   1.368       .  D
C1922      C1964   1.494       .  S
C1923      H1928   1.086       .  S
C1923      C1924   1.361       .  D
C1924      C2008   1.492       .  S
C1929      C1930   1.542       .  S
C1929      C1935   1.536       .  S
C1929      C1933   1.539       .  S
C1929      C2155   1.463       .  S
C1930      H1937   1.086       .  S
C1930      C1931   1.366       .  D
C1931      C1932   1.544       .  S
C1931      C2007   1.491       .  S
C1932      C1936   1.544       .  S
C1932      C1934   1.543       .  S
C1932      H1938   1.112       .  S
C1933      H1939   1.086       .  S
C1933      C1934   1.364       .  D
C1934      C1961   1.491       .  S
C1935      H1940   1.086       .  S
C1935      C1936   1.359       .  D
C1936      C2042   1.487       .  S
N1941      H1973   1.039       .  S
N1941      C1945   1.350       .  A
N1942      C1949   1.351       .  A
N1943      H1974   1.038       .  S
N1943      C1947   1.352       .  A
N1944      C1951   1.351       .  A
C1945      C1953   1.381       .  A
C1945      C1961   1.404       .  A
C1946      C1962   1.404       .  A
C1946      C1954   1.381       .  A
C1947      C1955   1.381       .  A
C1947      C1964   1.411       .  A
C1948      C1963   1.411       .  A
C1948      C1956   1.381       .  A
C1949      C1961   1.407       .  A
C1949      C1957   1.378       .  A
C1950      C1964   1.408       .  A
C1950      C1958   1.378       .  A
C1951      C1959   1.378       .  A
C1951      C1962   1.407       .  A
C1952      C1960   1.378       .  A
C1952      C1963   1.408       .  A
C1953      H1965   1.082       .  S
C1954      H1966   1.082       .  S
C1955      H1967   1.082       .  S
C1956      H1968   1.082       .  S
C1957      H1969   1.080       .  S
C1958      H1970   1.081       .  S
C1959      H1971   1.080       .  S
C1960      H1972   1.081       .  S
C1975      C1976   1.540       .  S
C1975      C1981   1.535       .  S
C1975      C1979   1.548       .  S
C1975      C2163   1.471       .  S
C1976      H1983   1.086       .  S
C1976      C1977   1.363       .  D
C1977      C1978   1.545       .  S
C1977      C2043   1.491       .  S
C1978      C1982   1.543       .  S
C1978      C1980   1.544       .  S
C1978      H1984   1.112       .  S
C1979      H1985   1.085       .  S
C1979      C1980   1.371       .  D
C1980      C2075   1.501       .  S
C1981      H1986   1.086       .  S
C1981      C1982   1.359       .  D
C1982      C2010   1.487       .  S
N1987      H2019   1.039       .  S
N1987      C1991   1.350       .  A
N1988      C2717   1.349   1_545  A
N1988      C1996   1.349       .  A
N1989      H2020   1.037       .  S
N1989      C1993   1.349       .  A
N1990      C2719   1.348       .  A
N1990      C1998   1.349   1_565  A
C1991      C1999   1.380       .  A
C1991      C2007   1.403       .  A
C1992      C2008   1.403       .  A
C1992      C2000   1.381       .  A
C1993      C2001   1.381       .  A
C1993      C2010   1.404       .  A
C1994      C2009   1.404       .  A
C1994      C2002   1.380       .  A
C1995      N2710   1.349       .  A
C1995      C2007   1.403       .  A
C1995      C2003   1.377       .  A
C1996      C2010   1.405       .  A
C1996      C2004   1.379       .  A
C1997      N2712   1.348       .  A
C1997      C2005   1.378       .  A
C1997      C2008   1.403       .  A
C1998      C2006   1.378       .  A
C1998      C2009   1.405       .  A
C1999      H2011   1.082       .  S
C2000      H2012   1.082       .  S
C2001      H2013   1.081       .  S
C2002      H2014   1.082       .  S
C2003      C2726   1.375       .  A
C2003      H2015   1.081       .  S
C2004      C2725   1.375   1_545  A
C2004      H2016   1.080       .  S
C2005      C2728   1.376       .  A
C2005      H2017   1.081       .  S
C2006      C2727   1.376   1_545  A
C2006      H2018   1.081       .  S
C2009      C2096   1.490       .  S
N2021      H2053   1.039       .  S
N2021      C2026   1.348       .  A
N2022      C2751   1.349   1_545  A
N2022      C2030   1.348       .  A
N2023      H2054   1.040       .  S
N2023      C2028   1.349       .  A
N2024      C2753   1.349   1_545  A
N2024      C2032   1.348       .  A
C2025      C2033   1.381       .  A
C2025      C2041   1.402       .  A
C2026      C2042   1.402       .  A
C2026      C2034   1.381       .  A
C2027      C2035   1.381       .  A
C2027      C2044   1.402       .  A
C2028      C2043   1.402       .  A
C2028      C2036   1.381       .  A
C2029      N2744   1.349       .  A
C2029      C2041   1.405       .  A
C2029      C2037   1.378       .  A
C2030      C2044   1.403       .  A
C2030      C2038   1.378       .  A
C2031      N2746   1.349       .  A
C2031      C2039   1.378       .  A
C2031      C2042   1.404       .  A
C2032      C2040   1.378       .  A
C2032      C2043   1.403       .  A
C2033      H2045   1.082       .  S
C2034      H2046   1.082       .  S
C2035      H2047   1.082       .  S
C2036      H2048   1.082       .  S
C2037      C2760   1.375       .  A
C2037      H2049   1.081       .  S
C2038      C2759   1.375   1_545  A
C2038      H2050   1.081       .  S
C2039      C2762   1.375       .  A
C2039      H2051   1.081       .  S
C2040      C2761   1.375   1_545  A
C2040      H2052   1.081       .  S
N2055      H2087   1.038       .  S
N2055      C2059   1.353       .  A
N2056      C2063   1.353       .  A
N2057      H2088   1.038       .  S
N2057      C2061   1.353       .  A
N2058      C2065   1.352       .  A
C2059      C2067   1.381       .  A
C2059      C2075   1.411       .  A
C2060      C2076   1.411       .  A
C2060      C2068   1.381       .  A
C2061      C2069   1.381       .  A
C2061      C2078   1.411       .  A
C2062      C2077   1.411       .  A
C2062      C2070   1.381       .  A
C2063      C2075   1.412       .  A
C2063      C2071   1.378       .  A
C2064      C2078   1.412       .  A
C2064      C2072   1.378       .  A
C2065      C2073   1.378       .  A
C2065      C2076   1.409       .  A
C2066      C2074   1.378       .  A
C2066      C2077   1.409       .  A
C2067      H2079   1.082       .  S
C2068      H2080   1.082       .  S
C2069      H2081   1.082       .  S
C2070      H2082   1.082       .  S
C2071      H2083   1.080       .  S
C2072      H2084   1.080       .  S
C2073      H2085   1.080       .  S
C2074      H2086   1.080       .  S
C2076      C2091   1.498       .  S
C2089      C2090   1.545       .  S
C2089      C2095   1.542       .  S
C2089      C2093   1.535       .  S
C2089      C2162   1.468       .  S
C2090      H2097   1.086       .  S
C2090      C2091   1.368       .  D
C2091      C2092   1.544       .  S
C2092      C2096   1.542       .  S
C2092      C2094   1.545       .  S
C2092      H2098   1.112       .  S
C2093      H2099   1.086       .  S
C2093      C2094   1.358       .  D
C2094      C2121   1.486       .  S
C2095      H2100   1.086       .  S
C2095      C2096   1.365       .  D
N2101      H2133   1.041       .  S
N2101      C2105   1.348       .  A
N2102      C2831   1.347       .  A
N2102      C2110   1.348       .  A
N2103      H2134   1.037       .  S
N2103      C2107   1.350       .  A
N2104      C2833   1.347       .  A
N2104      C2112   1.348       .  A
C2105      C2113   1.381       .  A
C2105      C2121   1.398       .  A
C2106      C2122   1.398       .  A
C2106      C2114   1.381       .  A
C2107      C2115   1.381       .  A
C2107      C2124   1.407       .  A
C2108      C2123   1.407       .  A
C2108      C2116   1.381       .  A
C2109      N2824   1.347   1_545  A
C2109      C2121   1.401       .  A
C2109      C2117   1.377       .  A
C2110      C2124   1.404       .  A
C2110      C2118   1.379       .  A
C2111      N2826   1.347   1_545  A
C2111      C2119   1.377       .  A
C2111      C2122   1.401       .  A
C2112      C2120   1.379       .  A
C2112      C2123   1.404       .  A
C2113      H2125   1.082       .  S
C2114      H2126   1.082       .  S
C2115      H2127   1.082       .  S
C2116      H2128   1.082       .  S
C2117      C2840   1.375   1_545  A
C2117      H2129   1.081       .  S
C2118      C2839   1.375       .  A
C2118      H2130   1.081       .  S
C2119      C2842   1.375   1_545  A
C2119      H2131   1.081       .  S
C2120      C2841   1.375       .  A
C2120      H2132   1.081       .  S
C2135      C2136   1.206       .  T
C2136      C2137   1.413       .  S
C2137      C2138   1.206       .  T
C2139      C2140   1.206       .  T
C2140      C2141   1.413       .  S
C2141      C2142   1.206       .  T
C2143      C2144   1.203       .  T
C2144      C2145   1.408       .  S
C2145      C2146   1.204       .  T
C2147      C2148   1.206       .  T
C2148      C2149   1.413       .  S
C2149      C2150   1.206       .  T
C2151      C2152   1.208       .  T
C2152      C2153   1.416       .  S
C2153      C2154   1.208       .  T
C2155      C2156   1.204       .  T
C2156      C2157   1.408       .  S
C2157      C2158   1.203       .  T
C2159      C2160   1.206       .  T
C2160      C2161   1.413       .  S
C2161      C2162   1.207       .  T
C2163      C2164   1.208       .  T
C2164      C2165   1.416       .  S
C2165      C2166   1.208       .  T
O2167      C2175   1.264       .  A
O2167     Co2187   2.009       .  S
O2168      C2176   1.295       .  A
O2168     Co2188   2.069       .  S
O2169      C2177   1.270       .  A
O2169     Co2189   1.899       .  S
O2170      C2178   1.259       .  A
O2170     Co2190   1.987       .  S
O2171      C2177   1.295       .  A
O2171     Co2188   2.070       .  S
O2172      C2178   1.264       .  A
O2172     Co2187   2.009       .  S
O2173      C2176   1.270       .  A
O2173     Co2190   1.899       .  S
O2174      C2175   1.259       .  A
O2174     Co2189   1.987       .  S
C2175      C2527   1.438       .  S
C2176      C2503   1.435       .  S
C2177      C2520   1.436       .  S
C2178      C2515   1.437       .  S
O2179      C2192   1.261       .  A
O2179     Co2187   1.971       .  S
O2180      C2193   1.252       .  A
O2180     Co2188   1.998       .  S
O2181      C2194   1.269       .  A
O2181     Co2189   2.011       .  S
O2182      C2195   1.244       .  A
O2182     Co2190   1.965       .  S
O2183      C2195   1.252       .  A
O2183     Co2188   1.999       .  S
O2184      C2194   1.261       .  A
O2184     Co2187   1.971       .  S
O2185      C2192   1.269       .  A
O2185     Co2190   2.011       .  S
O2186      C2193   1.244       .  A
O2186     Co2189   1.965       .  S
Co2187     O2191   2.085       .  S
Co2188     O2191   2.255       .  S
Co2189     O2191   1.934       .  S
Co2190     O2191   1.934       .  S
C2192      C2504   1.430       .  S
C2193      C2508   1.435       .  S
C2194      C2519   1.430       .  S
C2195      C2499   1.435       .  S
C2196      C2197   1.538       .  S
C2196      C2202   1.539       .  S
C2196      C2200   1.544       .  S
C2196      C2496   1.468       .  S
C2197      H2204   1.086       .  S
C2197      C2198   1.361       .  D
C2198      C2199   1.547       .  S
C2198      C2265   1.492       .  S
C2199      C2203   1.543       .  S
C2199      C2201   1.542       .  S
C2199      H2205   1.112       .  S
C2200      H2206   1.086       .  S
C2200      C2201   1.368       .  D
C2201      C2324   1.494       .  S
C2202      H2207   1.086       .  S
C2202      C2203   1.363       .  D
C2203      C2484   1.489       .  S
C2208      C2209   1.535       .  S
C2208      C2214   1.541       .  S
C2208      C2212   1.545       .  S
C2208      C2500   1.468       .  S
C2209      H2216   1.087       .  S
C2209      C2210   1.358       .  D
C2210      C2211   1.545       .  S
C2210      C2483   1.486       .  S
C2211      C2215   1.543       .  S
C2211      C2213   1.544       .  S
C2211      H2217   1.112       .  S
C2212      H2218   1.086       .  S
C2212      C2213   1.368       .  D
C2213      C2438   1.498       .  S
C2214      H2219   1.086       .  S
C2214      C2215   1.365       .  D
C2215      C2266   1.490       .  S
C2220      C2221   1.536       .  S
C2220      C2226   1.542       .  S
C2220      C2224   1.539       .  S
C2220      C2507   1.463       .  S
C2221      H2228   1.086       .  S
C2221      C2222   1.360       .  D
C2222      C2223   1.544       .  S
C2222      C2402   1.487       .  S
C2223      C2227   1.544       .  S
C2223      C2225   1.543       .  S
C2223      H2229   1.112       .  S
C2224      H2230   1.086       .  S
C2224      C2225   1.364       .  D
C2225      C2323   1.491       .  S
C2226      H2231   1.086       .  S
C2226      C2227   1.366       .  D
C2227      C2264   1.491       .  S
C2232      C2233   1.535       .  S
C2232      C2238   1.540       .  S
C2232      C2236   1.548       .  S
C2232      C2512   1.471       .  S
C2233      H2240   1.086       .  S
C2233      C2234   1.359       .  D
C2234      C2235   1.543       .  S
C2234      C2267   1.487       .  S
C2235      C2239   1.545       .  S
C2235      C2237   1.544       .  S
C2235      H2241   1.111       .  S
C2236      H2242   1.085       .  S
C2236      C2237   1.371       .  D
C2237      C2439   1.501       .  S
C2238      H2243   1.086       .  S
C2238      C2239   1.363       .  D
C2239      C2405   1.490       .  S
N2244      H2276   1.039       .  S
N2244      C2248   1.350       .  A
N2245      C2253   1.349       .  A
N2246      H2277   1.037       .  S
N2246      C2250   1.349       .  A
N2247      C2255   1.349       .  A
C2248      C2256   1.380       .  A
C2248      C2264   1.403       .  A
C2249      C2265   1.403       .  A
C2249      C2257   1.381       .  A
C2250      C2258   1.381       .  A
C2250      C2267   1.404       .  A
C2251      C2266   1.404       .  A
C2251      C2259   1.380       .  A
C2252      C2264   1.403       .  A
C2252      C2260   1.377       .  A
C2253      C2267   1.405       .  A
C2253      C2261   1.379       .  A
C2254      C2262   1.378       .  A
C2254      C2265   1.403       .  A
C2255      C2263   1.378       .  A
C2255      C2266   1.405       .  A
C2256      H2268   1.082       .  S
C2257      H2269   1.082       .  S
C2258      H2270   1.081       .  S
C2259      H2271   1.082       .  S
C2260      H2272   1.081       .  S
C2261      H2273   1.080       .  S
C2262      H2274   1.081       .  S
C2263      H2275   1.081       .  S
C2278      C2279   1.539       .  S
C2278      C2284   1.538       .  S
C2278      C2282   1.544       .  S
C2278      C2511   1.468       .  S
C2279      H2286   1.086       .  S
C2279      C2280   1.363       .  D
C2280      C2281   1.543       .  S
C2280      C2485   1.489       .  S
C2281      C2285   1.547       .  S
C2281      C2283   1.542       .  S
C2281      H2287   1.112       .  S
C2282      H2288   1.086       .  S
C2282      C2283   1.368       .  D
C2283      C2325   1.494       .  S
C2284      H2289   1.086       .  S
C2284      C2285   1.361       .  D
C2285      C2369   1.492       .  S
C2290      C2291   1.542       .  S
C2290      C2296   1.536       .  S
C2290      C2294   1.539       .  S
C2290      C2516   1.463       .  S
C2291      H2298   1.086       .  S
C2291      C2292   1.366       .  D
C2292      C2293   1.544       .  S
C2292      C2368   1.491       .  S
C2293      C2297   1.544       .  S
C2293      C2295   1.543       .  S
C2293      H2299   1.112       .  S
C2294      H2300   1.086       .  S
C2294      C2295   1.364       .  D
C2295      C2322   1.491       .  S
C2296      H2301   1.086       .  S
C2296      C2297   1.359       .  D
C2297      C2403   1.487       .  S
N2302      H2334   1.039       .  S
N2302      C2668   1.350   1_554  A
N2302      C2306   1.350       .  A
N2303      C2310   1.351       .  A
N2304      H2335   1.038       .  S
N2304      C2670   1.352   1_554  A
N2304      C2308   1.352       .  A
N2305      C2312   1.351       .  A
C2306      C2314   1.381       .  A
C2306      C2322   1.404       .  A
C2307      N2663   1.350       .  A
C2307      C2323   1.404       .  A
C2307      C2315   1.381       .  A
C2308      C2316   1.381       .  A
C2308      C2325   1.411       .  A
C2309      N2665   1.352       .  A
C2309      C2324   1.411       .  A
C2309      C2317   1.381       .  A
C2310      C2322   1.407       .  A
C2310      C2318   1.378       .  A
C2311      C2325   1.408       .  A
C2311      C2319   1.378       .  A
C2312      C2320   1.378       .  A
C2312      C2323   1.407       .  A
C2313      C2321   1.378       .  A
C2313      C2324   1.408       .  A
C2314      C2676   1.378   1_554  A
C2314      H2326   1.082       .  S
C2315      C2675   1.378       .  A
C2315      H2327   1.082       .  S
C2316      C2678   1.381   1_554  A
C2316      H2328   1.082       .  S
C2317      C2677   1.381       .  A
C2317      H2329   1.082       .  S
C2318      H2330   1.080       .  S
C2319      H2331   1.081       .  S
C2320      H2332   1.080       .  S
C2321      H2333   1.081       .  S
C2336      C2337   1.540       .  S
C2336      C2342   1.535       .  S
C2336      C2340   1.548       .  S
C2336      C2524   1.471       .  S
C2337      H2344   1.086       .  S
C2337      C2338   1.363       .  D
C2338      C2339   1.545       .  S
C2338      C2404   1.491       .  S
C2339      C2343   1.543       .  S
C2339      C2341   1.544       .  S
C2339      H2345   1.112       .  S
C2340      H2346   1.085       .  S
C2340      C2341   1.371       .  D
C2341      C2436   1.501       .  S
C2342      H2347   1.086       .  S
C2342      C2343   1.359       .  D
C2343      C2371   1.487       .  S
N2348      H2380   1.039       .  S
N2348      C2352   1.350       .  A
N2349      C2357   1.349       .  A
N2350      H2381   1.037       .  S
N2350      C2354   1.349       .  A
N2351      C2359   1.349       .  A
C2352      C2360   1.380       .  A
C2352      C2368   1.403       .  A
C2353      C2369   1.403       .  A
C2353      C2361   1.381       .  A
C2354      C2362   1.381       .  A
C2354      C2371   1.404       .  A
C2355      C2370   1.404       .  A
C2355      C2363   1.380       .  A
C2356      C2368   1.403       .  A
C2356      C2364   1.377       .  A
C2357      C2371   1.405       .  A
C2357      C2365   1.379       .  A
C2358      C2366   1.378       .  A
C2358      C2369   1.403       .  A
C2359      C2367   1.378       .  A
C2359      C2370   1.405       .  A
C2360      H2372   1.082       .  S
C2361      H2373   1.082       .  S
C2362      H2374   1.081       .  S
C2363      H2375   1.082       .  S
C2364      H2376   1.081       .  S
C2365      H2377   1.080       .  S
C2366      H2378   1.081       .  S
C2367      H2379   1.081       .  S
C2370      C2457   1.490       .  S
N2382      H2414   1.039       .  S
N2382      C2387   1.348       .  A
N2382      C2747   1.348   1_554  A
N2383      C2391   1.348       .  A
N2384      H2415   1.040       .  S
N2384      C2389   1.349       .  A
N2384      C2749   1.349   1_554  A
N2385      C2393   1.348       .  A
C2386      N2743   1.348       .  A
C2386      C2394   1.381       .  A
C2386      C2402   1.402       .  A
C2387      C2403   1.402       .  A
C2387      C2395   1.381       .  A
C2388      N2745   1.349       .  A
C2388      C2396   1.381       .  A
C2388      C2405   1.402       .  A
C2389      C2404   1.402       .  A
C2389      C2397   1.381       .  A
C2390      C2402   1.405       .  A
C2390      C2398   1.378       .  A
C2391      C2405   1.403       .  A
C2391      C2399   1.378       .  A
C2392      C2400   1.378       .  A
C2392      C2403   1.404       .  A
C2393      C2401   1.378       .  A
C2393      C2404   1.403       .  A
C2394      C2756   1.377       .  A
C2394      H2406   1.082       .  S
C2395      C2755   1.377   1_554  A
C2395      H2407   1.082       .  S
C2396      C2758   1.380       .  A
C2396      H2408   1.082       .  S
C2397      C2757   1.380   1_554  A
C2397      H2409   1.082       .  S
C2398      H2410   1.081       .  S
C2399      H2411   1.081       .  S
C2400      H2412   1.081       .  S
C2401      H2413   1.081       .  S
N2416      H2448   1.038       .  S
N2416      C2420   1.353       .  A
N2417      C2424   1.353       .  A
N2417      C2786   1.353   1_554  A
N2418      H2449   1.038       .  S
N2418      C2422   1.353       .  A
N2419      C2426   1.352       .  A
N2419      C2788   1.352   1_554  A
C2420      C2428   1.381       .  A
C2420      C2436   1.411       .  A
C2421      C2437   1.411       .  A
C2421      C2429   1.381       .  A
C2422      C2430   1.381       .  A
C2422      C2439   1.411       .  A
C2423      C2438   1.411       .  A
C2423      C2431   1.381       .  A
C2424      C2436   1.412       .  A
C2424      C2432   1.378       .  A
C2425      N2778   1.353       .  A
C2425      C2439   1.412       .  A
C2425      C2433   1.378       .  A
C2426      C2434   1.378       .  A
C2426      C2437   1.409       .  A
C2427      N2780   1.352       .  A
C2427      C2435   1.378       .  A
C2427      C2438   1.409       .  A
C2428      H2440   1.082       .  S
C2429      H2441   1.082       .  S
C2430      H2442   1.082       .  S
C2431      H2443   1.082       .  S
C2432      C2794   1.376   1_554  A
C2432      H2444   1.080       .  S
C2433      C2793   1.376       .  A
C2433      H2445   1.080       .  S
C2434      C2796   1.374   1_554  A
C2434      H2446   1.080       .  S
C2435      C2795   1.374       .  A
C2435      H2447   1.080       .  S
C2437      C2452   1.498       .  S
C2450      C2451   1.545       .  S
C2450      C2456   1.541       .  S
C2450      C2454   1.535       .  S
C2450      C2523   1.468       .  S
C2451      H2458   1.086       .  S
C2451      C2452   1.368       .  D
C2452      C2453   1.544       .  S
C2453      C2457   1.542       .  S
C2453      C2455   1.545       .  S
C2453      H2459   1.112       .  S
C2454      H2460   1.087       .  S
C2454      C2455   1.358       .  D
C2455      C2482   1.486       .  S
C2456      H2461   1.086       .  S
C2456      C2457   1.365       .  D
N2462      H2494   1.041       .  S
N2462      C2828   1.348   1_554  A
N2462      C2466   1.348       .  A
N2463      C2471   1.348       .  A
N2464      H2495   1.037       .  S
N2464      C2830   1.350   1_554  A
N2464      C2468   1.350       .  A
N2465      C2473   1.348       .  A
C2466      C2474   1.381       .  A
C2466      C2482   1.398       .  A
C2467      N2823   1.348       .  A
C2467      C2483   1.398       .  A
C2467      C2475   1.381       .  A
C2468      C2476   1.381       .  A
C2468      C2485   1.407       .  A
C2469      N2825   1.350       .  A
C2469      C2484   1.407       .  A
C2469      C2477   1.381       .  A
C2470      C2482   1.401       .  A
C2470      C2478   1.377       .  A
C2471      C2485   1.404       .  A
C2471      C2479   1.379       .  A
C2472      C2480   1.377       .  A
C2472      C2483   1.401       .  A
C2473      C2481   1.379       .  A
C2473      C2484   1.404       .  A
C2474      C2836   1.378   1_554  A
C2474      H2486   1.082       .  S
C2475      C2835   1.378       .  A
C2475      H2487   1.082       .  S
C2476      C2838   1.380   1_554  A
C2476      H2488   1.082       .  S
C2477      C2837   1.380       .  A
C2477      H2489   1.082       .  S
C2478      H2490   1.081       .  S
C2479      H2491   1.081       .  S
C2480      H2492   1.081       .  S
C2481      H2493   1.081       .  S
C2496      C2497   1.206       .  T
C2497      C2498   1.413       .  S
C2498      C2499   1.206       .  T
C2500      C2501   1.206       .  T
C2501      C2502   1.413       .  S
C2502      C2503   1.206       .  T
C2504      C2505   1.203       .  T
C2505      C2506   1.408       .  S
C2506      C2507   1.204       .  T
C2508      C2509   1.206       .  T
C2509      C2510   1.413       .  S
C2510      C2511   1.206       .  T
C2512      C2513   1.208       .  T
C2513      C2514   1.416       .  S
C2514      C2515   1.208       .  T
C2516      C2517   1.204       .  T
C2517      C2518   1.408       .  S
C2518      C2519   1.203       .  T
C2520      C2521   1.206       .  T
C2521      C2522   1.413       .  S
C2522      C2523   1.207       .  T
C2524      C2525   1.208       .  T
C2525      C2526   1.416       .  S
C2526      C2527   1.208       .  T
O2528      C2536   1.264       .  A
O2528     Co2548   2.009       .  S
O2529      C2537   1.295       .  A
O2529     Co2549   2.069       .  S
O2530      C2538   1.270       .  A
O2530     Co2550   1.899       .  S
O2531      C2539   1.259       .  A
O2531     Co2551   1.987       .  S
O2532      C2538   1.295       .  A
O2532     Co2549   2.070       .  S
O2533      C2539   1.264       .  A
O2533     Co2548   2.009       .  S
O2534      C2537   1.270       .  A
O2534     Co2551   1.899       .  S
O2535      C2536   1.259       .  A
O2535     Co2550   1.987       .  S
C2536      C2888   1.438       .  S
C2537      C2864   1.435       .  S
C2538      C2881   1.436       .  S
C2539      C2876   1.437       .  S
O2540      C2553   1.261       .  A
O2540     Co2548   1.971       .  S
O2541      C2554   1.252       .  A
O2541     Co2549   1.998       .  S
O2542      C2555   1.269       .  A
O2542     Co2550   2.011       .  S
O2543      C2556   1.244       .  A
O2543     Co2551   1.965       .  S
O2544      C2556   1.252       .  A
O2544     Co2549   1.999       .  S
O2545      C2555   1.261       .  A
O2545     Co2548   1.971       .  S
O2546      C2553   1.269       .  A
O2546     Co2551   2.011       .  S
O2547      C2554   1.244       .  A
O2547     Co2550   1.965       .  S
Co2548     O2552   2.085       .  S
Co2549     O2552   2.255       .  S
Co2550     O2552   1.934       .  S
Co2551     O2552   1.934       .  S
C2553      C2865   1.430       .  S
C2554      C2869   1.435       .  S
C2555      C2880   1.430       .  S
C2556      C2860   1.435       .  S
C2557      C2558   1.538       .  S
C2557      C2563   1.539       .  S
C2557      C2561   1.544       .  S
C2557      C2857   1.468       .  S
C2558      H2565   1.086       .  S
C2558      C2559   1.361       .  D
C2559      C2560   1.547       .  S
C2559      C2626   1.492       .  S
C2560      C2564   1.543       .  S
C2560      C2562   1.542       .  S
C2560      H2566   1.112       .  S
C2561      H2567   1.086       .  S
C2561      C2562   1.368       .  D
C2562      C2685   1.494       .  S
C2563      H2568   1.086       .  S
C2563      C2564   1.363       .  D
C2564      C2845   1.489       .  S
C2569      C2570   1.535       .  S
C2569      C2575   1.541       .  S
C2569      C2573   1.545       .  S
C2569      C2861   1.468       .  S
C2570      H2577   1.087       .  S
C2570      C2571   1.358       .  D
C2571      C2572   1.545       .  S
C2571      C2844   1.486       .  S
C2572      C2576   1.543       .  S
C2572      C2574   1.544       .  S
C2572      H2578   1.112       .  S
C2573      H2579   1.086       .  S
C2573      C2574   1.368       .  D
C2574      C2799   1.498       .  S
C2575      H2580   1.086       .  S
C2575      C2576   1.365       .  D
C2576      C2627   1.490       .  S
C2581      C2582   1.536       .  S
C2581      C2587   1.542       .  S
C2581      C2585   1.539       .  S
C2581      C2868   1.463       .  S
C2582      H2589   1.086       .  S
C2582      C2583   1.360       .  D
C2583      C2584   1.544       .  S
C2583      C2763   1.487       .  S
C2584      C2588   1.544       .  S
C2584      C2586   1.543       .  S
C2584      H2590   1.112       .  S
C2585      H2591   1.086       .  S
C2585      C2586   1.364       .  D
C2586      C2684   1.491       .  S
C2587      H2592   1.086       .  S
C2587      C2588   1.366       .  D
C2588      C2625   1.491       .  S
C2593      C2594   1.535       .  S
C2593      C2599   1.540       .  S
C2593      C2597   1.548       .  S
C2593      C2873   1.471       .  S
C2594      H2601   1.086       .  S
C2594      C2595   1.359       .  D
C2595      C2596   1.543       .  S
C2595      C2628   1.487       .  S
C2596      C2600   1.545       .  S
C2596      C2598   1.544       .  S
C2596      H2602   1.111       .  S
C2597      H2603   1.085       .  S
C2597      C2598   1.371       .  D
C2598      C2800   1.501       .  S
C2599      H2604   1.086       .  S
C2599      C2600   1.363       .  D
C2600      C2766   1.490       .  S
N2605      H2637   1.039       .  S
N2605      C2609   1.350       .  A
N2606      C2614   1.349       .  A
N2607      H2638   1.037       .  S
N2607      C2611   1.349       .  A
N2608      C2616   1.349       .  A
C2609      C2617   1.380       .  A
C2609      C2625   1.403       .  A
C2610      C2626   1.403       .  A
C2610      C2618   1.381       .  A
C2611      C2619   1.381       .  A
C2611      C2628   1.404       .  A
C2612      C2627   1.404       .  A
C2612      C2620   1.380       .  A
C2613      C2625   1.403       .  A
C2613      C2621   1.377       .  A
C2614      C2628   1.405       .  A
C2614      C2622   1.379       .  A
C2615      C2623   1.378       .  A
C2615      C2626   1.403       .  A
C2616      C2624   1.378       .  A
C2616      C2627   1.405       .  A
C2617      H2629   1.082       .  S
C2618      H2630   1.082       .  S
C2619      H2631   1.081       .  S
C2620      H2632   1.082       .  S
C2621      H2633   1.081       .  S
C2622      H2634   1.080       .  S
C2623      H2635   1.081       .  S
C2624      H2636   1.081       .  S
C2639      C2640   1.539       .  S
C2639      C2645   1.538       .  S
C2639      C2643   1.544       .  S
C2639      C2872   1.468       .  S
C2640      H2647   1.086       .  S
C2640      C2641   1.363       .  D
C2641      C2642   1.543       .  S
C2641      C2846   1.489       .  S
C2642      C2646   1.547       .  S
C2642      C2644   1.542       .  S
C2642      H2648   1.112       .  S
C2643      H2649   1.086       .  S
C2643      C2644   1.368       .  D
C2644      C2686   1.494       .  S
C2645      H2650   1.086       .  S
C2645      C2646   1.361       .  D
C2646      C2730   1.492       .  S
C2651      C2652   1.542       .  S
C2651      C2657   1.536       .  S
C2651      C2655   1.539       .  S
C2651      C2877   1.463       .  S
C2652      H2659   1.086       .  S
C2652      C2653   1.366       .  D
C2653      C2654   1.544       .  S
C2653      C2729   1.491       .  S
C2654      C2658   1.544       .  S
C2654      C2656   1.543       .  S
C2654      H2660   1.112       .  S
C2655      H2661   1.086       .  S
C2655      C2656   1.364       .  D
C2656      C2683   1.491       .  S
C2657      H2662   1.086       .  S
C2657      C2658   1.359       .  D
C2658      C2764   1.487       .  S
N2663      H2695   1.039       .  S
N2663      C2667   1.350       .  A
N2664      C2671   1.351       .  A
N2665      H2696   1.038       .  S
N2665      C2669   1.352       .  A
N2666      C2673   1.351       .  A
C2667      C2675   1.381       .  A
C2667      C2683   1.404       .  A
C2668      C2684   1.404       .  A
C2668      C2676   1.381       .  A
C2669      C2677   1.381       .  A
C2669      C2686   1.411       .  A
C2670      C2685   1.411       .  A
C2670      C2678   1.381       .  A
C2671      C2683   1.407       .  A
C2671      C2679   1.378       .  A
C2672      C2686   1.408       .  A
C2672      C2680   1.378       .  A
C2673      C2681   1.378       .  A
C2673      C2684   1.407       .  A
C2674      C2682   1.378       .  A
C2674      C2685   1.408       .  A
C2675      H2687   1.082       .  S
C2676      H2688   1.082       .  S
C2677      H2689   1.082       .  S
C2678      H2690   1.082       .  S
C2679      H2691   1.080       .  S
C2680      H2692   1.081       .  S
C2681      H2693   1.080       .  S
C2682      H2694   1.081       .  S
C2697      C2698   1.540       .  S
C2697      C2703   1.535       .  S
C2697      C2701   1.548       .  S
C2697      C2885   1.471       .  S
C2698      H2705   1.086       .  S
C2698      C2699   1.363       .  D
C2699      C2700   1.545       .  S
C2699      C2765   1.491       .  S
C2700      C2704   1.543       .  S
C2700      C2702   1.544       .  S
C2700      H2706   1.112       .  S
C2701      H2707   1.085       .  S
C2701      C2702   1.371       .  D
C2702      C2797   1.501       .  S
C2703      H2708   1.086       .  S
C2703      C2704   1.359       .  D
C2704      C2732   1.487       .  S
N2709      H2741   1.039       .  S
N2709      C2713   1.350       .  A
N2710      C2718   1.349       .  A
N2711      H2742   1.037       .  S
N2711      C2715   1.349       .  A
N2712      C2720   1.349       .  A
C2713      C2721   1.380       .  A
C2713      C2729   1.403       .  A
C2714      C2730   1.403       .  A
C2714      C2722   1.381       .  A
C2715      C2723   1.381       .  A
C2715      C2732   1.404       .  A
C2716      C2731   1.404       .  A
C2716      C2724   1.380       .  A
C2717      C2729   1.403       .  A
C2717      C2725   1.377       .  A
C2718      C2732   1.405       .  A
C2718      C2726   1.379       .  A
C2719      C2727   1.378       .  A
C2719      C2730   1.403       .  A
C2720      C2728   1.378       .  A
C2720      C2731   1.405       .  A
C2721      H2733   1.082       .  S
C2722      H2734   1.082       .  S
C2723      H2735   1.081       .  S
C2724      H2736   1.082       .  S
C2725      H2737   1.081       .  S
C2726      H2738   1.080       .  S
C2727      H2739   1.081       .  S
C2728      H2740   1.081       .  S
C2731      C2818   1.490       .  S
N2743      H2775   1.039       .  S
N2743      C2748   1.348       .  A
N2744      C2752   1.348       .  A
N2745      H2776   1.040       .  S
N2745      C2750   1.349       .  A
N2746      C2754   1.348       .  A
C2747      C2755   1.381       .  A
C2747      C2763   1.402       .  A
C2748      C2764   1.402       .  A
C2748      C2756   1.381       .  A
C2749      C2757   1.381       .  A
C2749      C2766   1.402       .  A
C2750      C2765   1.402       .  A
C2750      C2758   1.381       .  A
C2751      C2763   1.405       .  A
C2751      C2759   1.378       .  A
C2752      C2766   1.403       .  A
C2752      C2760   1.378       .  A
C2753      C2761   1.378       .  A
C2753      C2764   1.404       .  A
C2754      C2762   1.378       .  A
C2754      C2765   1.403       .  A
C2755      H2767   1.082       .  S
C2756      H2768   1.082       .  S
C2757      H2769   1.082       .  S
C2758      H2770   1.082       .  S
C2759      H2771   1.081       .  S
C2760      H2772   1.081       .  S
C2761      H2773   1.081       .  S
C2762      H2774   1.081       .  S
N2777      H2809   1.038       .  S
N2777      C2781   1.353       .  A
N2778      C2785   1.353       .  A
N2779      H2810   1.038       .  S
N2779      C2783   1.353       .  A
N2780      C2787   1.352       .  A
C2781      C2789   1.381       .  A
C2781      C2797   1.411       .  A
C2782      C2798   1.411       .  A
C2782      C2790   1.381       .  A
C2783      C2791   1.381       .  A
C2783      C2800   1.411       .  A
C2784      C2799   1.411       .  A
C2784      C2792   1.381       .  A
C2785      C2797   1.412       .  A
C2785      C2793   1.378       .  A
C2786      C2800   1.412       .  A
C2786      C2794   1.378       .  A
C2787      C2795   1.378       .  A
C2787      C2798   1.409       .  A
C2788      C2796   1.378       .  A
C2788      C2799   1.409       .  A
C2789      H2801   1.082       .  S
C2790      H2802   1.082       .  S
C2791      H2803   1.082       .  S
C2792      H2804   1.082       .  S
C2793      H2805   1.080       .  S
C2794      H2806   1.080       .  S
C2795      H2807   1.080       .  S
C2796      H2808   1.080       .  S
C2798      C2813   1.498       .  S
C2811      C2812   1.545       .  S
C2811      C2817   1.541       .  S
C2811      C2815   1.535       .  S
C2811      C2884   1.468       .  S
C2812      H2819   1.086       .  S
C2812      C2813   1.368       .  D
C2813      C2814   1.544       .  S
C2814      C2818   1.542       .  S
C2814      C2816   1.545       .  S
C2814      H2820   1.112       .  S
C2815      H2821   1.087       .  S
C2815      C2816   1.358       .  D
C2816      C2843   1.486       .  S
C2817      H2822   1.086       .  S
C2817      C2818   1.365       .  D
N2823      H2855   1.041       .  S
N2823      C2827   1.348       .  A
N2824      C2832   1.348       .  A
N2825      H2856   1.037       .  S
N2825      C2829   1.350       .  A
N2826      C2834   1.348       .  A
C2827      C2835   1.381       .  A
C2827      C2843   1.398       .  A
C2828      C2844   1.398       .  A
C2828      C2836   1.381       .  A
C2829      C2837   1.381       .  A
C2829      C2846   1.407       .  A
C2830      C2845   1.407       .  A
C2830      C2838   1.381       .  A
C2831      C2843   1.401       .  A
C2831      C2839   1.377       .  A
C2832      C2846   1.404       .  A
C2832      C2840   1.379       .  A
C2833      C2841   1.377       .  A
C2833      C2844   1.401       .  A
C2834      C2842   1.379       .  A
C2834      C2845   1.404       .  A
C2835      H2847   1.082       .  S
C2836      H2848   1.082       .  S
C2837      H2849   1.082       .  S
C2838      H2850   1.082       .  S
C2839      H2851   1.081       .  S
C2840      H2852   1.081       .  S
C2841      H2853   1.081       .  S
C2842      H2854   1.081       .  S
C2857      C2858   1.206       .  T
C2858      C2859   1.413       .  S
C2859      C2860   1.206       .  T
C2861      C2862   1.206       .  T
C2862      C2863   1.413       .  S
C2863      C2864   1.206       .  T
C2865      C2866   1.203       .  T
C2866      C2867   1.408       .  S
C2867      C2868   1.204       .  T
C2869      C2870   1.206       .  T
C2870      C2871   1.413       .  S
C2871      C2872   1.206       .  T
C2873      C2874   1.208       .  T
C2874      C2875   1.416       .  S
C2875      C2876   1.208       .  T
C2877      C2878   1.204       .  T
C2878      C2879   1.408       .  S
C2879      C2880   1.203       .  T
C2881      C2882   1.206       .  T
C2882      C2883   1.413       .  S
C2883      C2884   1.207       .  T
C2885      C2886   1.208       .  T
C2886      C2887   1.416       .  S
C2887      C2888   1.208       .  T
