geometry optimzed in LAMMPS
_audit_creation_date              2020-12-01 
_audit_creation_method            'lammps2cif' 
_symmetry_space_group_name_H-M    'P1' 
_symmetry_Int_Tables_number       1 
_symmetry_cell_setting            triclinic 
loop_ 
_symmetry_equiv_pos_as_xyz 
  x,y,z 
_cell_length_a                    64.99286699 
_cell_length_b                    64.32494677097729 
_cell_length_c                    35.59865703871462 
_cell_angle_alpha                 85.60108938441134 
_cell_angle_beta                  90.97010541662924 
_cell_angle_gamma                 122.74958835384787 
loop_ 
_atom_site_label 
_atom_site_type_symbol 
_atom_site_fract_x 
_atom_site_fract_y 
_atom_site_fract_z 
_atom_site_charge 
N1          N  0.54660497  0.87693427  0.42247688    -0.02900
C2          C  0.53726819  0.85209373  0.42391134    -0.00300
C3          C  0.51662216  0.83922796  0.94746748    -0.23200
C4          C  0.51387822  0.85641506  0.96291930    -0.23400
C5          C  0.53280201  0.87925423  0.94812798    -0.00400
H6          H  0.50691130  0.81971679  0.95692947     0.13400
H7          H  0.50096002  0.85278050  0.98521643     0.13400
N8          N  0.34861658  0.90467871  0.44392657    -0.02900
C9          C  0.32400171  0.89015650  0.45087637    -0.00300
C10         C  0.31161360  0.89268752  0.42079613    -0.23200
C11         C  0.32892211  0.90858959  0.39387526    -0.23400
C12         C  0.35137402  0.91517839  0.40822599    -0.00400
H13         H  0.29200634  0.88212973  0.41730246     0.13400
H14         H  0.32540173  0.91294337  0.36546615     0.13400
O15         O  0.53862810  0.01316687  0.25054759    -0.79600
O16         O  0.56557374  0.06920819  0.09588138    -0.79600
O17         O  0.55422623  0.00857810  0.12776873    -0.79600
O18         O  0.59202691  0.09839568  0.20102472    -0.79500
O19         O  0.53617789  0.02055188  0.08643247    -0.79700
O20         O  0.57709127  0.06131511  0.23036048    -0.79600
O21         O  0.58844708  0.07063385  0.14352297    -0.79600
O22         O  0.55565660  0.00684006  0.20496135    -0.79600
C23         C  0.54962178  0.00328144  0.23933282     1.10100
C24         C  0.58650430  0.07551001  0.10885838     1.10000
C25         C  0.54873391  0.01109108  0.09417461     1.10200
C26         C  0.59373982  0.08484507  0.22708681     1.10000
O27         O  0.53682116  0.05413566  0.26630551    -0.79600
O28         O  0.49575790  0.01699046  0.12496569    -0.79600
O29         O  0.50296924  0.98815194  0.20835609    -0.79600
O30         O  0.56215875  0.09435232  0.14201452    -0.79600
O31         O  0.52428857  0.06600778  0.13640352    -0.79600
O32         O  0.50371420  0.02223775  0.21689579    -0.79600
O33         O  0.54350549  0.07691238  0.21318375    -0.79500
O34         O  0.50226031  0.98692180  0.13141783    -0.79600
Co35       Co  0.53938347  0.04176521  0.22037464     1.51500
Co36       Co  0.53059711  0.04304984  0.11420326     1.51700
Co37       Co  0.52994178  0.99993456  0.16840795     1.51600
Co38       Co  0.56553251  0.07089641  0.17890719     1.51500
O39         O  0.54018179  0.03605318  0.16559961    -1.41500
C40         C  0.53831197  0.07291345  0.24894282     1.10100
C41         C  0.48885753  0.99486801  0.12022364     1.10100
C42         C  0.49276573  0.99886131  0.22030485     1.10100
C43         C  0.54136124  0.08820601  0.12989856     1.10100
N44         N  0.49151281  0.17159633  0.39170464    -0.02900
C45         C  0.47930938  0.18337779  0.38537384    -0.00300
C46         C  0.46728062  0.18180024  0.41837745    -0.23200
C47         C  0.47251406  0.16947558  0.94565054    -0.23400
C48         C  0.48727486  0.16344608  0.42891221    -0.00400
H49         H  0.45795279  0.19113404  0.42326541     0.13400
H50         H  0.46740383  0.16659416  0.97527096     0.13400
N51         N  0.73124117  0.19312127  0.43537064    -0.02900
C52         C  0.75392008  0.21423006  0.43690328    -0.00300
C53         C  0.76653878  0.21976313  0.40285593    -0.23200
C54         C  0.75120311  0.20211990  0.37937300    -0.23400
C55         C  0.72980264  0.18607859  0.39986920    -0.00400
H56         H  0.78504796  0.23510417  0.39581779     0.13400
H57         H  0.75499951  0.20138256  0.35018951     0.13400
O58         O  0.05190150  0.57146349  0.41741024    -0.79600
O59         O  0.01403404  0.53315024  0.28265995    -0.79600
O60         O  0.08034509  0.56897916  0.33538453    -0.79600
O61         O  0.00360718  0.54597489  0.41261077    -0.79500
O62         O  0.04535217  0.56591083  0.33155068    -0.79700
O63         O  0.01532611  0.54066189  0.46956793    -0.79600
O64         O  0.99934887  0.54239839  0.32968734    -0.79600
O65         O  0.08378928  0.56911434  0.41212699    -0.79600
C66         C  0.07456528  0.58096902  0.42144035     1.10100
C67         C  0.00161900  0.54146832  0.29369875     1.10000
C68         C  0.06778346  0.57771053  0.32331697     1.10200
C69         C  0.00093375  0.54413676  0.44895411     1.10000
O70         O  0.01273574  0.49939448  0.44867758    -0.79600
O71         O  0.05516976  0.53282410  0.29665790    -0.79600
O72         O  0.06752876  0.51815018  0.41884956    -0.79600
O73         O  0.98025058  0.49027643  0.34473010    -0.79600
O74         O  0.01279270  0.49431878  0.32236878    -0.79600
O75         O  0.05715644  0.53391790  0.46176804    -0.79600
O76         O  0.98071048  0.49251824  0.41932786    -0.79500
O77         O  0.06637115  0.51732658  0.34240530    -0.79600
Co78       Co  0.03089304  0.53466064  0.43023085     1.51500
Co79       Co  0.02802144  0.52983223  0.32802589     1.51700
Co80       Co  0.07165255  0.54206473  0.37719649     1.51600
Co81       Co  0.99611892  0.51912209  0.37704319     1.51500
O82         O  0.03389473  0.52571479  0.38021422    -1.41500
C83         C  0.99021116  0.48575503  0.44429731     1.10100
C84         C  0.06699421  0.52318612  0.30778367     1.10100
C85         C  0.06775552  0.52294683  0.45267856     1.10100
C86         C  0.99006399  0.48179301  0.32629707     1.10100
N87         N  0.19211817  0.51477860  0.11343231    -0.02900
C88         C  0.21392219  0.51635137  0.11276614    -0.00300
C89         C  0.22030195  0.51345752  0.14925128    -0.23200
C90         C  0.20209625  0.50994536  0.17298929    -0.23400
C91         C  0.18516905  0.51086604  0.15035399    -0.00400
H92         H  0.23672468  0.51414670  0.15770620     0.13400
H93         H  0.20159795  0.50771183  0.20346739     0.13400
N94         N  0.89484766  0.33697340  0.12955438    -0.02900
C95         C  0.87745920  0.31303543  0.12386644    -0.00300
C96         C  0.87285121  0.29798118  0.15653864    -0.23200
C97         C  0.88741128  0.31316282  0.18353239    -0.23400
C98         C  0.90064658  0.33701357  0.16642274    -0.00400
H99         H  0.85897199  0.27839011  0.16101788     0.13400
H100        H  0.88714543  0.30766498  0.21311586     0.13400
N101        N  0.88541643  0.56791899  0.08985703    -0.02900
C102        C  0.86677848  0.57181743  0.09029337    -0.00300
C103        C  0.86570673  0.57996007  0.12466023    -0.23200
C104        C  0.88408502  0.58115675  0.14596008    -0.23400
C105        C  0.89591324  0.57376051  0.12403215    -0.00400
H106        H  0.85248722  0.58400996  0.13359955     0.13400
H107        H  0.88803643  0.58627883  0.17467947     0.13400
N108        N  0.17346761  0.71676452  0.09285206    -0.02900
C109        C  0.19606086  0.73779853  0.09562867    -0.00300
C110        C  0.19954132  0.74511300  0.13197171    -0.23200
C111        C  0.17918773  0.72774199  0.15283442    -0.23400
C112        C  0.16369926  0.71043010  0.12862916    -0.00400
H113        H  0.21543988  0.76134078  0.14231275     0.13400
H114        H  0.17628319  0.72728382  0.18282205     0.13400
O115        O  0.50278804  0.48922017  0.12714819    -0.79600
O116        O  0.48093029  0.50346788  0.21486421    -0.79600
O117        O  0.54080950  0.48701061  0.21386189    -0.79600
O118        O  0.48861435  0.52801289  0.13051017    -0.79500
O119        O  0.50304288  0.47698058  0.22280272    -0.79700
O120        O  0.50431244  0.52538978  0.07818070    -0.79600
O121        O  0.49277380  0.54189224  0.20278839    -0.79600
O122        O  0.53741809  0.49107122  0.13744083    -0.79600
C123        C  0.51570452  0.48003052  0.12476513     1.10100
C124        C  0.47718476  0.52051749  0.21799615     1.10000
C125        C  0.51919688  0.47186726  0.22715803     1.10200
C126        C  0.48708932  0.52521999  0.09456820     1.10000
O127        O  0.53929532  0.56452842  0.11306462    -0.79600
O128        O  0.54391717  0.51779459  0.25818857    -0.79600
O129        O  0.57241989  0.54516010  0.13791956    -0.79600
O130        O  0.54473040  0.57026448  0.19991379    -0.79600
O131        O  0.52344620  0.54437566  0.24893141    -0.79600
O132        O  0.54760943  0.52846340  0.09310281    -0.79600
O133        O  0.51831361  0.57625855  0.14316188    -0.79500
O134        O  0.57258180  0.54007511  0.21430721    -0.79600
Co135      Co  0.51995950  0.52563012  0.12385673     1.51500
Co136      Co  0.51299591  0.51089303  0.23244155     1.51700
Co137      Co  0.55459878  0.51677332  0.17564968     1.51600
Co138      Co  0.51889884  0.54875179  0.16514409     1.51500
O139        O  0.52747006  0.52335797  0.17897340    -1.41500
C140        C  0.53288440  0.58025750  0.11628296     1.10100
C141        C  0.56632560  0.53307541  0.24866581     1.10100
C142        C  0.56938673  0.53976463  0.10427476     1.10100
C143        C  0.53981425  0.56605917  0.23517068     1.10100
N144        N  0.49779307  0.34460745  0.43070460    -0.02900
C145        C  0.49727203  0.32311261  0.43300250    -0.00300
C146        C  0.49110445  0.31211806  0.46947482    -0.23200
C147        C  0.48851031  0.32752946  0.49053954    -0.23400
C148        C  0.49288648  0.34742258  0.46638847    -0.00400
H149        H  0.48901668  0.29478723  0.47979616     0.13400
H150        H  0.48420442  0.32474592  0.02063300     0.13400
N151        N  0.35345875  0.51675684  0.43553865    -0.02900
C152        C  0.33491417  0.52075608  0.43767411    -0.00300
C153        C  0.32599642  0.52117384  0.40226526    -0.23200
C154        C  0.33961364  0.51799303  0.37726722    -0.23400
C155        C  0.35648407  0.51569683  0.39804017    -0.00400
H156        H  0.31123114  0.52381430  0.39537232     0.13400
H157        H  0.33782196  0.51794404  0.34698407     0.13400
N158        N  0.71321528  0.57201491  0.44902809    -0.02900
C159        C  0.73783253  0.58174143  0.44970877    -0.00300
C160        C  0.74820931  0.59198124  0.41406562    -0.23200
C161        C  0.72973029  0.58861821  0.39085523    -0.23400
C162        C  0.70861113  0.57639932  0.41296576    -0.00400
H163        H  0.76704816  0.59973965  0.40538684     0.13400
H164        H  0.73135468  0.59377736  0.36088714     0.13400
N165        N  0.58934079  0.71881509  0.41254955    -0.02900
C166        C  0.60074352  0.74394815  0.41143343    -0.00300
C167        C  0.61555615  0.75484288  0.37918257    -0.23200
C168        C  0.61338921  0.73613127  0.36003431    -0.23400
C169        C  0.59716976  0.71427111  0.38083967    -0.00400
H170        H  0.62515557  0.77418273  0.36878874     0.13400
H171        H  0.62152889  0.73811942  0.33265362     0.13400
C172        C  0.37548068  0.51363773  0.37951200    -0.11400
C173        C  0.40029245  0.53322675  0.37737844     0.04100
C174        C  0.41666164  0.53269686  0.35291039    -0.11900
C175        C  0.40846332  0.51362565  0.32857743     0.18900
C176        C  0.38367791  0.49384943  0.33121923    -0.09000
C177        C  0.36759262  0.49396522  0.35663561    -0.01900
H178        H  0.43563749  0.54799859  0.35129497     0.05500
C179        C  0.42556772  0.51523074  0.29945298     0.20900
H180        H  0.34838878  0.47924328  0.35700663     0.10600
C181        C  0.42928861  0.49576230  0.29824001    -0.15300
C182        C  0.44450156  0.49608034  0.27050031     0.03600
C183        C  0.45753085  0.51695774  0.24395260    -0.10600
C184        C  0.45364269  0.53639644  0.24523537    -0.00700
C185        C  0.43774641  0.53559352  0.27222013    -0.05800
H186        H  0.42009390  0.48001693  0.31899394     0.06600
H187        H  0.46316849  0.55252448  0.22523169     0.10000
Br188      Br  0.37000489  0.46750753  0.29813398    -0.05500
Br189      Br  0.41200506  0.56285421  0.40241827    -0.02500
Br190      Br  0.44614644  0.46712336  0.27144454     0.00400
Br191      Br  0.43285252  0.56255086  0.26955144    -0.04000
C192        C  0.46532033  0.52144019  0.07313116    -0.11400
C193        C  0.46602167  0.52581442  0.03327597     0.04100
C194        C  0.44556000  0.52308383  0.01462501    -0.11900
C195        C  0.42414900  0.51643668  0.03452871     0.18900
C196        C  0.42321193  0.51190259  0.07400743    -0.09000
C197        C  0.44357733  0.51441819  0.09289733    -0.01900
H198        H  0.44659414  0.52683994  0.98428347     0.05500
C199        C  0.40351822  0.51528680  0.01339245     0.20900
H200        H  0.44239803  0.51099678  0.12329138     0.10600
C201        C  0.38748865  0.49431669  0.49427473    -0.15300
C202        C  0.36965112  0.49385998  0.47082724     0.03600
C203        C  0.36784526  0.51480082  0.46551720    -0.10600
C204        C  0.38280374  0.53512303  0.98648351    -0.00700
C205        C  0.40066347  0.53559468  0.00999902    -0.05800
H206        H  0.38911466  0.47837746  0.49704844     0.06600
H207        H  0.38163151  0.55131501  0.98277012     0.10000
Br208      Br  0.39446219  0.50240002  0.10314833    -0.05500
Br209      Br  0.49470130  0.53741356  0.00216251    -0.02500
Br210      Br  0.34764744  0.46397795  0.44729567     0.00400
Br211      Br  0.42196885  0.56503472  0.03497080    -0.04000
C212        C  0.55106601  0.58649987  0.26089664    -0.11400
C213        C  0.57255983  0.60997621  0.25143236     0.04100
C214        C  0.58061797  0.62899688  0.27565628    -0.11900
C215        C  0.56786785  0.62513081  0.30957125     0.18900
C216        C  0.54716065  0.60154966  0.31991271    -0.09000
C217        C  0.53903896  0.58253873  0.29585703    -0.01900
H218        H  0.59657292  0.64718563  0.26748045     0.05500
C219        C  0.57421862  0.64675531  0.33054488     0.20900
H220        H  0.52255058  0.56478682  0.30407493     0.10600
C221        C  0.56776978  0.66303433  0.31497254    -0.15300
C222        C  0.57409407  0.68437114  0.33226443     0.03600
C223        C  0.58713237  0.68981286  0.36597427    -0.10600
C224        C  0.59292829  0.67312702  0.38242974    -0.00700
C225        C  0.58659600  0.65165906  0.36486817    -0.05800
H226        H  0.55795770  0.65922587  0.28889266     0.06600
H227        H  0.60315985  0.67726591  0.40809850     0.10000
Br228      Br  0.52826020  0.59498738  0.36518456    -0.05500
Br229      Br  0.59187925  0.61750658  0.20626669    -0.02500
Br230      Br  0.56430410  0.70544894  0.30860051     0.00400
Br231      Br  0.59624320  0.63030083  0.38750576    -0.04000
C232        C  0.54177469  0.60238177  0.08863668    -0.11400
C233        C  0.56192809  0.61133981  0.06324029     0.04100
C234        C  0.56813876  0.63110531  0.03628399    -0.11900
C235        C  0.55484651  0.64254950  0.03379994     0.18900
C236        C  0.53481088  0.63374212  0.05893389    -0.09000
C237        C  0.52854118  0.61401400  0.08597305    -0.01900
H238        H  0.58358019  0.63768836  0.01704873     0.05500
C239        C  0.56242265  0.66366552  0.00489980     0.20900
H240        H  0.51287395  0.60749315  0.10465617     0.10600
C241        C  0.54716948  0.66101047  0.47478115    -0.15300
C242        C  0.55499427  0.67980706  0.44537758     0.03600
C243        C  0.57858033  0.70154343  0.44550606    -0.10600
C244        C  0.59324503  0.70468498  0.97648649    -0.00700
C245        C  0.58540110  0.68608494  0.00604791    -0.05800
H246        H  0.52932041  0.64404673  0.47366759     0.06600
H247        H  0.61138980  0.72132659  0.97692309     0.10000
Br248      Br  0.51574021  0.64838164  0.05798914    -0.05500
Br249      Br  0.58246568  0.59834833  0.06403018    -0.02500
Br250      Br  0.53282622  0.67524061  0.40599444     0.00400
Br251      Br  0.60681869  0.69206937  0.04731454    -0.04000
C252        C  0.58569456  0.54051286  0.27706274    -0.11400
C253        C  0.58151169  0.54040228  0.31601818     0.04100
C254        C  0.60002613  0.54534212  0.34161710    -0.11900
C255        C  0.62289051  0.55069459  0.32914924     0.18900
C256        C  0.62728893  0.55150250  0.29031812    -0.09000
C257        C  0.60888174  0.54649424  0.26482363    -0.01900
H258        H  0.59659533  0.54503888  0.37139331     0.05500
C259        C  0.64221516  0.55557805  0.35647677     0.20900
H260        H  0.61265807  0.54676272  0.23520534     0.10600
C261        C  0.64991754  0.53894959  0.36120165    -0.15300
C262        C  0.67086654  0.54499589  0.38135991     0.03600
C263        C  0.68418237  0.56774771  0.39782112    -0.10600
C264        C  0.67568271  0.58371093  0.39517772    -0.00700
C265        C  0.65482176  0.57778283  0.37466381    -0.05800
H266        H  0.64034812  0.52180934  0.34741842     0.06600
H267        H  0.68596782  0.60135124  0.40751374     0.10000
Br268      Br  0.65834998  0.55974557  0.27046235    -0.05500
Br269      Br  0.55159959  0.53495201  0.33603965    -0.02500
Br270      Br  0.68183375  0.52260696  0.38312679     0.00400
Br271      Br  0.64559292  0.60156115  0.36933478    -0.04000
C272        C  0.69608026  0.56554021  0.47984070    -0.11400
C273        C  0.69490406  0.58435081  0.49555895     0.04100
C274        C  0.67428080  0.57859534  0.01689738    -0.11900
C275        C  0.65417695  0.55408426  0.02296382     0.18900
C276        C  0.65544773  0.53505046  0.00810192    -0.09000
C277        C  0.67624983  0.54088562  0.98679176    -0.01900
H278        H  0.67351041  0.59349656  0.02756814     0.05500
C279        C  0.63203300  0.54930599  0.04379787     0.20900
H280        H  0.67643724  0.52630676  0.97381212     0.10600
C281        C  0.60998528  0.54110205  0.02503254    -0.15300
C282        C  0.58940502  0.53818200  0.04339745     0.03600
C283        C  0.59069232  0.54382669  0.08144004    -0.10600
C284        C  0.61295840  0.55212138  0.09981701    -0.00700
C285        C  0.63324860  0.55472379  0.08161696    -0.05800
H286        H  0.60886304  0.53719961  0.99573756     0.06600
H287        H  0.61463434  0.55625062  0.12905198     0.10000
Br288      Br  0.62905252  0.50097240  0.01547585    -0.05500
Br289      Br  0.71954582  0.61867961  0.48426535    -0.02500
Br290      Br  0.56047354  0.52671577  0.01453883     0.00400
Br291      Br  0.66203858  0.56488632  0.11030961    -0.04000
C292        C  0.51431252  0.45058885  0.25348532    -0.11400
C293        C  0.50665043  0.44870178  0.29117981     0.04100
C294        C  0.50449420  0.43008841  0.31697260    -0.11900
C295        C  0.50964982  0.41283521  0.30621688     0.18900
C296        C  0.51670346  0.41420557  0.26833483    -0.09000
C297        C  0.51946401  0.43330589  0.24250511    -0.01900
H298        H  0.49901059  0.42924347  0.34592433     0.05500
C299        C  0.50668832  0.39339476  0.33523903     0.20900
H300        H  0.52538988  0.43451496  0.21370819     0.10600
C301        C  0.48355467  0.37718887  0.35277710    -0.15300
C302        C  0.48036881  0.36072225  0.38355066     0.03600
C303        C  0.50039037  0.35989721  0.39707313    -0.10600
C304        C  0.52325907  0.37507876  0.37843587    -0.00700
C305        C  0.52674244  0.39236252  0.34857481    -0.05800
H306        H  0.46800876  0.37783548  0.34308526     0.06600
H307        H  0.53871969  0.37447218  0.38864231     0.10000
Br308      Br  0.52153684  0.38978783  0.25021097    -0.05500
Br309      Br  0.50053165  0.47201061  0.31024762    -0.02500
Br310      Br  0.44828246  0.33943423  0.40617279     0.00400
Br311      Br  0.55959778  0.41591345  0.33011413    -0.04000
C312        C  0.50700573  0.45776821  0.10348087    -0.11400
C313        C  0.48984027  0.45107613  0.07432553     0.04100
C314        C  0.48582821  0.43278669  0.05082702    -0.11900
C315        C  0.49833402  0.42066282  0.05573926     0.18900
C316        C  0.51428709  0.42619456  0.08599595    -0.09000
C317        C  0.51849879  0.44454979  0.10939654    -0.01900
H318        H  0.47341630  0.42852991  0.02774151     0.05500
C319        C  0.49550793  0.40323506  0.02806115     0.20900
H320        H  0.53138738  0.44894179  0.13180903     0.10600
C321        C  0.51578970  0.40924466  0.00549435    -0.15300
C322        C  0.51486089  0.39206402  0.98246442     0.03600
C323        C  0.49306462  0.36867622  0.48035905    -0.10600
C324        C  0.47232345  0.36341122  0.50111784    -0.00700
C325        C  0.47337221  0.38030124  0.02510995    -0.05800
H326        H  0.53291079  0.42687181  0.00759200     0.06600
H327        H  0.45557494  0.34525783  0.50089046     0.10000
Br328      Br  0.53090138  0.40928021  0.09645053    -0.05500
Br329      Br  0.47231447  0.46689397  0.06248329    -0.02500
Br330      Br  0.54509368  0.40033464  0.95956516     0.00400
Br331      Br  0.44510088  0.37010094  0.05616101    -0.04000
C332        C  0.84783064  0.56624034  0.06166897    -0.11400
C333        C  0.82299613  0.54808304  0.57154486     0.04100
C334        C  0.80407784  0.54877751  0.55320049    -0.11900
C335        C  0.80907632  0.56693149  0.52388437     0.18900
C336        C  0.83393511  0.58379991  0.01170664    -0.09000
C337        C  0.85295538  0.58350690  0.03089877    -0.01900
H338        H  0.78538854  0.53575291  0.56323213     0.05500
C339        C  0.78863354  0.56944777  0.50898338     0.20900
H340        H  0.87180328  0.59777943  0.02324983     0.10600
C341        C  0.79068265  0.59232929  0.00979885    -0.15300
C342        C  0.77298168  0.59614407  0.49363438     0.03600
C343        C  0.75165380  0.57646901  0.47851836    -0.10600
C344        C  0.74864205  0.55306184  0.48039043    -0.00700
C345        C  0.76694483  0.54950673  0.49481566    -0.05800
H346        H  0.80673731  0.60774296  0.02146586     0.06600
H347        H  0.73303109  0.53801700  0.46728471     0.10000
Br348      Br  0.84288644  0.60783182  0.96951285    -0.05500
Br349      Br  0.81420517  0.52308281  0.61217626    -0.02500
Br350      Br  0.77983411  0.62917745  0.99044260     0.00400
Br351      Br  0.76260466  0.51787410  0.48996888    -0.04000
C352        C  0.23056426  0.52160499  0.08020356    -0.11400
C353        C  0.22496370  0.50394130  0.05418476     0.04100
C354        C  0.24376544  0.50584258  0.03211461    -0.11900
C355        C  0.26854756  0.52435320  0.03694664     0.18900
C356        C  0.27394683  0.54255638  0.56198150    -0.09000
C357        C  0.25506242  0.54125804  0.58259974    -0.01900
H358        H  0.23910750  0.49196038  0.01249799     0.05500
C359        C  0.28836059  0.52420465  0.51620030     0.20900
H360        H  0.25982917  0.55462921  0.60321219     0.10600
C361        C  0.30549374  0.54539638  0.49345663    -0.15300
C362        C  0.32334486  0.54555827  0.47173027     0.03600
C363        C  0.32403524  0.52403034  0.47123670    -0.10600
C364        C  0.30775150  0.50314912  0.99525618    -0.00700
C365        C  0.29017065  0.50316685  0.01781309    -0.05800
H366        H  0.30449336  0.56171145  0.49153202     0.06600
H367        H  0.30761948  0.48626473  0.99462757     0.10000
Br368      Br  0.30690654  0.56788282  0.57303834    -0.05500
Br369      Br  0.19268030  0.47504140  0.05151976    -0.02500
Br370      Br  0.34545390  0.57521232  0.44071312     0.00400
Br371      Br  0.26881175  0.47370828  0.04968826    -0.04000
C372        C  0.99078797  0.55060622  0.26461928    -0.11400
C373        C  0.98119721  0.56505119  0.27248434     0.04100
C374        C  0.96857949  0.57017622  0.24466660    -0.11900
C375        C  0.96562562  0.56160734  0.20861530     0.18900
C376        C  0.97703263  0.54919411  0.19968653    -0.09000
C377        C  0.98926139  0.54369518  0.22747461    -0.01900
H378        H  0.96048645  0.58041725  0.25150503     0.05500
C379        C  0.94917271  0.56427458  0.18192003     0.20900
H380        H  0.99703523  0.53327526  0.22003154     0.10600
C381        C  0.95573669  0.58789301  0.16640165    -0.15300
C382        C  0.93914390  0.59110785  0.14502437     0.03600
C383        C  0.91563608  0.57051655  0.13859539    -0.10600
C384        C  0.90939605  0.54687490  0.15317738    -0.00700
C385        C  0.92584836  0.54361514  0.17465950    -0.05800
H386        H  0.97349467  0.60395794  0.17202002     0.06600
H387        H  0.89104571  0.53105786  0.15013173     0.10000
Br388      Br  0.97625115  0.53922502  0.14996313    -0.05500
Br389      Br  0.98518566  0.57903520  0.31982996    -0.02500
Br390      Br  0.94871086  0.62407426  0.12698150     0.00400
Br391      Br  0.91456626  0.51090669  0.19691269    -0.04000
C392        C  0.98219368  0.54742210  0.46587894    -0.11400
C393        C  0.95898228  0.53795669  0.44966002     0.04100
C394        C  0.94152764  0.54104445  0.46638600    -0.11900
C395        C  0.94665880  0.55362612  0.49907271     0.18900
C396        C  0.96959875  0.56275282  0.51566047    -0.09000
C397        C  0.98704976  0.55949964  0.49919871    -0.01900
H398        H  0.92380800  0.53355969  0.45381690     0.05500
C399        C  0.92775397  0.55658596  0.51614066     0.20900
H400        H  0.00455190  0.56662849  0.51233594     0.10600
C401        C  0.90725915  0.53604966  0.53530257    -0.15300
C402        C  0.89126758  0.53912426  0.05638973     0.03600
C403        C  0.89555157  0.56288197  0.55892187    -0.10600
C404        C  0.91475530  0.58299205  0.53706597    -0.00700
C405        C  0.93057997  0.57993417  0.51531911    -0.05800
H406        H  0.90441266  0.51783165  0.53521987     0.06600
H407        H  0.91830628  0.60138675  0.53881688     0.10000
Br408      Br  0.97763615  0.57928058  0.56135852    -0.05500
Br409      Br  0.94917363  0.51921460  0.40604100    -0.02500
Br410      Br  0.86407186  0.51058277  0.08283454     0.00400
Br411      Br  0.95633379  0.60823454  0.48595433    -0.04000
C412        C  0.97515196  0.45911185  0.30636996    -0.11400
C413        C  0.95711601  0.45679857  0.28122897     0.04100
C414        C  0.94519096  0.43656563  0.25923685    -0.11900
C415        C  0.95041530  0.41804373  0.26234507     0.18900
C416        C  0.96775461  0.41982433  0.28845099    -0.09000
C417        C  0.98028023  0.44048927  0.30974633    -0.01900
H418        H  0.93192907  0.43540133  0.23920222     0.05500
C419        C  0.93774214  0.39732931  0.23761340     0.20900
H420        H  0.99398294  0.44198429  0.32910418     0.10600
C421        C  0.95114074  0.39499016  0.20949613    -0.15300
C422        C  0.93946978  0.37586428  0.18518747     0.03600
C423        C  0.91394158  0.35902155  0.18845770    -0.10600
C424        C  0.90061585  0.36154637  0.21637948    -0.00700
C425        C  0.91224478  0.38038852  0.24087491    -0.05800
H426        H  0.97077557  0.40795243  0.20672769     0.06600
H427        H  0.88101954  0.34842227  0.21960806     0.10000
Br428      Br  0.97423387  0.39410843  0.29687798    -0.05500
Br429      Br  0.94912857  0.48147536  0.27358579    -0.02500
Br430      Br  0.95931277  0.37255234  0.15001223     0.00400
Br431      Br  0.89266344  0.38138718  0.27959067    -0.04000
C432        C  0.97491848  0.46311793  0.47017023    -0.11400
C433        C  0.95159578  0.44310660  0.46066153     0.04100
C434        C  0.93762488  0.42286542  0.48712940    -0.11900
C435        C  0.94620219  0.42220192  0.52332100     0.18900
C436        C  0.96933088  0.44203404  0.53289322    -0.09000
C437        C  0.98346748  0.46212664  0.50645185    -0.01900
H438        H  0.91998646  0.40746418  0.47938956     0.05500
C439        C  0.93158054  0.39995117  0.54986577     0.20900
H440        H  0.00112430  0.47727787  0.51463474     0.10600
C441        C  0.93250956  0.37901605  0.54556339    -0.15300
C442        C  0.92017724  0.35819042  0.07113180     0.03600
C443        C  0.90626710  0.35777303  0.10153104    -0.10600
C444        C  0.90514435  0.37868043  0.10562736    -0.00700
C445        C  0.91759893  0.39959075  0.58003672    -0.05800
H446        H  0.94350976  0.37926974  0.52277910     0.06600
H447        H  0.89472289  0.37867636  0.12903596     0.10000
Br448      Br  0.98246896  0.44231469  0.58167714    -0.05500
Br449      Br  0.93802735  0.44153538  0.41180582    -0.02500
Br450      Br  0.92507724  0.33176047  0.06550783     0.00400
Br451      Br  0.91506125  0.42737768  0.58710952    -0.04000
C452        C  0.16403805  0.51071816  0.16534279    -0.11400
C453        C  0.14522172  0.48993346  0.18692271     0.04100
C454        C  0.12766069  0.49173887  0.20589537    -0.11900
C455        C  0.12852280  0.51406540  0.20357084     0.18900
C456        C  0.14666261  0.53450923  0.18047909    -0.09000
C457        C  0.16415260  0.53263825  0.16133303    -0.01900
H458        H  0.11375802  0.47592984  0.22358718     0.05500
C459        C  0.11247067  0.51647924  0.22931143     0.20900
H460        H  0.17867499  0.54876307  0.14494929     0.10600
C461        C  0.11794757  0.51826240  0.26754902    -0.15300
C462        C  0.10341936  0.52032954  0.29351612     0.03600
C463        C  0.08257384  0.52039461  0.28130096    -0.10600
C464        C  0.07725932  0.51879906  0.24273712    -0.00700
C465        C  0.09194293  0.51670604  0.21683929    -0.05800
H466        H  0.13388671  0.51831774  0.27719936     0.06600
H467        H  0.06150303  0.51894748  0.23271655     0.10000
Br468      Br  0.14962693  0.56593372  0.17700291    -0.05500
Br469      Br  0.14296826  0.45885743  0.19150758    -0.02500
Br470      Br  0.11442466  0.52456541  0.34451337     0.00400
Br471      Br  0.08302571  0.51354516  0.16501353    -0.04000
C472        C  0.08284672  0.51798023  0.47954350    -0.11400
C473        C  0.09004075  0.50142500  0.47174824     0.04100
C474        C  0.10833292  0.50106129  0.49251788    -0.11900
C475        C  0.11934150  0.51613147  0.52234804     0.18900
C476        C  0.11110362  0.53140782  0.53195186    -0.09000
C477        C  0.09315515  0.53233782  0.51054605    -0.01900
H478        H  0.11408604  0.48886830  0.48522202     0.05500
C479        C  0.13909518  0.51523896  0.54301505     0.20900
H480        H  0.08787421  0.54496007  0.51746991     0.10600
C481        C  0.16294065  0.53659794  0.54306809    -0.15300
C482        C  0.18157954  0.53627165  0.56331359     0.03600
C483        C  0.17669830  0.51432999  0.08340143    -0.10600
C484        C  0.15323907  0.49272121  0.58161004    -0.00700
C485        C  0.13455048  0.49303216  0.56205856    -0.05800
H486        H  0.16688161  0.55375147  0.52817882     0.06600
H487        H  0.14904623  0.47596335  0.09805590     0.10000
Br488      Br  0.12352615  0.55102955  0.57438062    -0.05500
Br489      Br  0.07543131  0.47810233  0.43381747    -0.02500
Br490      Br  0.21269889  0.56664925  0.56586988     0.00400
Br491      Br  0.10254911  0.46312422  0.56564276    -0.04000
C492        C  0.14113869  0.68729194  0.14317723    -0.11400
C493        C  0.13909811  0.66426708  0.14484986     0.04100
C494        C  0.12215195  0.64486036  0.17009727    -0.11900
C495        C  0.10768518  0.64829859  0.19438129     0.18900
C496        C  0.10821645  0.67045070  0.19057986    -0.09000
C497        C  0.12478849  0.68969390  0.16493091    -0.01900
H498        H  0.12193561  0.62785187  0.17339373     0.05500
C499        C  0.09660403  0.63118431  0.22828684     0.20900
H500        H  0.12647899  0.70742546  0.16443274     0.10600
C501        C  0.11172588  0.63400705  0.25868615    -0.15300
C502        C  0.10249628  0.61763636  0.29108568     0.03600
C503        C  0.07771004  0.59817260  0.29335428    -0.10600
C504        C  0.06242490  0.59619704  0.26340074    -0.00700
C505        C  0.07172125  0.61234094  0.23087018    -0.05800
H506        H  0.13086485  0.64885371  0.25694004     0.06600
H507        H  0.04352076  0.58140420  0.26426540     0.10000
Br508      Br  0.08918460  0.67642555  0.22349350    -0.05500
Br509      Br  0.16185121  0.65953628  0.11944121    -0.02500
Br510      Br  0.12431889  0.62304123  0.33152457     0.00400
Br511      Br  0.05010723  0.60717008  0.19014049    -0.04000
C512        C  0.09009123  0.60360513  0.44215617    -0.11400
C513        C  0.08977523  0.62534694  0.43639084     0.04100
C514        C  0.10554699  0.64608390  0.45660829    -0.11900
C515        C  0.12143873  0.64548994  0.48358501     0.18900
C516        C  0.12082785  0.62322583  0.49042132    -0.09000
C517        C  0.10588707  0.60302878  0.46916335    -0.01900
H518        H  0.10522391  0.66271961  0.45148910     0.05500
C519        C  0.13649008  0.66712935  0.50685811     0.20900
H520        H  0.10593353  0.58626500  0.47488954     0.10600
C521        C  0.12473215  0.67609693  0.52667623    -0.15300
C522        C  0.13740598  0.69437771  0.55201808     0.03600
C523        C  0.16204653  0.70312733  0.55991145    -0.10600
C524        C  0.17452065  0.69612751  0.53740108    -0.00700
C525        C  0.16211504  0.67875965  0.51043462    -0.05800
H526        H  0.10544880  0.66861932  0.52281138     0.06600
H527        H  0.19372454  0.70347110  0.54175319     0.10000
Br528      Br  0.13781782  0.61807659  0.53111328    -0.05500
Br529      Br  0.06871304  0.62784126  0.40059221    -0.02500
Br530      Br  0.12071087  0.70796776  0.07324146     0.00400
Br531      Br  0.18119528  0.67241001  0.47828175    -0.04000
C532        C  0.86100003  0.30415294  0.09160805    -0.11400
C533        C  0.84184256  0.30830182  0.08767718     0.04100
C534        C  0.82246094  0.29424237  0.06390777    -0.11900
C535        C  0.82184217  0.27594840  0.04387983     0.18900
C536        C  0.84193421  0.27309143  0.54580097    -0.09000
C537        C  0.86097135  0.28679946  0.07003896    -0.01900
H538        H  0.80737775  0.29692008  0.06216490     0.05500
C539        C  0.80035572  0.25999352  0.02097080     0.20900
H540        H  0.87531415  0.28297013  0.57336909     0.10600
C541        C  0.79591369  0.27067422  0.48887776    -0.15300
C542        C  0.77851896  0.25581450  0.46323892     0.03600
C543        C  0.76547472  0.22964025  0.46919482    -0.10600
C544        C  0.76813370  0.21902531  0.00329258    -0.00700
C545        C  0.78519921  0.23407368  0.02943509    -0.05800
H546        H  0.80679583  0.29061885  0.48276073     0.06600
H547        H  0.75810720  0.19905277  0.00868370     0.10000
Br548      Br  0.84426991  0.25102936  0.51536660    -0.05500
Br549      Br  0.84003893  0.33103968  0.11716221    -0.02500
Br550      Br  0.77392952  0.27233832  0.41972120     0.00400
Br551      Br  0.78775768  0.21850447  0.07586919    -0.04000
C552        C  0.48454558  0.20322598  0.35535757    -0.11400
C553        C  0.46603179  0.20799518  0.34738048     0.04100
C554        C  0.47187430  0.23244643  0.34392270    -0.11900
C555        C  0.49632471  0.25253255  0.34441084     0.18900
C556        C  0.51485728  0.24736932  0.34173078    -0.09000
C557        C  0.50894957  0.22284561  0.34834374    -0.01900
H558        H  0.45703776  0.23539607  0.34525726     0.05500
C559        C  0.50159198  0.27634246  0.35859871     0.20900
H560        H  0.52358355  0.21963056  0.35252885     0.10600
C561        C  0.51712603  0.28534115  0.38930827    -0.15300
C562        C  0.51837842  0.30338775  0.41030271     0.03600
C563        C  0.50273567  0.31195632  0.40270124    -0.10600
C564        C  0.48871910  0.30486031  0.37018741    -0.00700
C565        C  0.48843349  0.28756199  0.34771610    -0.05800
H566        H  0.52728249  0.27716507  0.39894266     0.06600
H567        H  0.47689137  0.31158098  0.36346367     0.10000
Br568      Br  0.54862977  0.27336811  0.33285627    -0.05500
Br569      Br  0.43203515  0.18173913  0.34926237    -0.02500
Br570      Br  0.54095587  0.31468748  0.95100009     0.00400
Br571      Br  0.46961099  0.27981978  0.30294883    -0.04000
C572        C  0.71335265  0.17820898  0.96525086    -0.11400
C573        C  0.70035076  0.18656370  0.98346077     0.04100
C574        C  0.68057770  0.17009301  0.00843366    -0.11900
C575        C  0.67336679  0.14515900  0.01543909     0.18900
C576        C  0.68679486  0.13708306  0.99783864    -0.09000
C577        C  0.70653993  0.15352398  0.97325661    -0.01900
H578        H  0.67032858  0.17654543  0.02154362     0.05500
C579        C  0.65126307  0.12741825  0.03968045     0.20900
H580        H  0.71632457  0.14684922  0.95936045     0.10600
C581        C  0.63004465  0.10894368  0.02302279    -0.15300
C582        C  0.60906326  0.09142261  0.04487549     0.03600
C583        C  0.60904031  0.09187915  0.08457546    -0.10600
C584        C  0.63047834  0.11031202  0.10115550    -0.00700
C585        C  0.65127028  0.12807448  0.07912429    -0.05800
H586        H  0.62982043  0.10816392  0.99271166     0.06600
H587        H  0.63084187  0.11148074  0.13138287     0.10000
Br588      Br  0.67866980  0.10360738  0.00616668    -0.05500
Br589      Br  0.70771611  0.21959741  0.47323186    -0.02500
Br590      Br  0.58137013  0.06702676  0.01863507     0.00400
Br591      Br  0.67930613  0.15291876  0.10411034    -0.04000
C592        C  0.70756875  0.16655517  0.38232284    -0.11400
C593        C  0.70707851  0.14677711  0.36689985     0.04100
C594        C  0.68839722  0.13192855  0.34272422    -0.11900
C595        C  0.67024225  0.13674637  0.33328311     0.18900
C596        C  0.66998217  0.15565306  0.35043956    -0.09000
C597        C  0.68855451  0.17035170  0.37482632    -0.01900
H598        H  0.68851046  0.11715308  0.33023479     0.05500
C599        C  0.65214426  0.12247241  0.30470530     0.20900
H600        H  0.68888644  0.18564534  0.38632580     0.10600
C601        C  0.63288115  0.09803532  0.31442009    -0.15300
C602        C  0.61419420  0.08480116  0.28918146     0.03600
C603        C  0.61464145  0.09617545  0.25313464    -0.10600
C604        C  0.63483410  0.12025836  0.24298451    -0.00700
C605        C  0.65345396  0.13330096  0.26823342    -0.05800
H606        H  0.63196159  0.08949073  0.34231148     0.06600
H607        H  0.63596781  0.12930839  0.21545017     0.10000
Br608      Br  0.64509371  0.16258952  0.34030547    -0.05500
Br609      Br  0.73189033  0.13982410  0.37759912    -0.02500
Br610      Br  0.58819559  0.05206153  0.30742971     0.00400
Br611      Br  0.68022441  0.16602694  0.25179060    -0.04000
C612        C  0.50050565  0.15448686  0.95165241    -0.11400
C613        C  0.49399601  0.12978634  0.95234662     0.04100
C614        C  0.50387450  0.12088478  0.97942158    -0.11900
C615        C  0.51898767  0.13595127  0.00740083     0.18900
C616        C  0.52570159  0.16077421  0.00625948    -0.09000
C617        C  0.51681472  0.16993460  0.97809935    -0.01900
H618        H  0.49831001  0.10163926  0.98042103     0.05500
C619        C  0.52514152  0.12484315  0.04002116     0.20900
H620        H  0.52130930  0.18878860  0.97839236     0.10600
C621        C  0.54968241  0.13336478  0.04715735    -0.15300
C622        C  0.55592408  0.12333707  0.07827015     0.03600
C623        C  0.53723354  0.10407154  0.10258046    -0.10600
C624        C  0.51279909  0.09645861  0.09603099    -0.00700
C625        C  0.50666510  0.10652937  0.06519404    -0.05800
H626        H  0.56403077  0.14774313  0.02817437     0.06600
H627        H  0.49813640  0.08185577  0.11435308     0.10000
Br628      Br  0.54422345  0.18193182  0.04524466    -0.05500
Br629      Br  0.46897419  0.10672563  0.42077804    -0.02500
Br630      Br  0.59007436  0.13614981  0.08438828     0.00400
Br631      Br  0.47267157  0.09457609  0.05902247    -0.04000
C632        C  0.50187747  0.16359454  0.36474314    -0.11400
C633        C  0.48735467  0.14803217  0.33650557     0.04100
C634        C  0.49491007  0.13470022  0.31777169    -0.11900
C635        C  0.51669210  0.13610396  0.32682981     0.18900
C636        C  0.53184313  0.15250539  0.35355110    -0.09000
C637        C  0.52453974  0.16622381  0.37185380    -0.01900
H638        H  0.48316213  0.12229759  0.29708455     0.05500
C639        C  0.52303951  0.12018010  0.30812460     0.20900
H640        H  0.53593785  0.17790263  0.39346333     0.10600
C641        C  0.53599326  0.12884312  0.27350962    -0.15300
C642        C  0.54138462  0.11406917  0.25405113     0.03600
C643        C  0.53332224  0.08958012  0.26884215    -0.10600
C644        C  0.52069624  0.08118079  0.30400024    -0.00700
C645        C  0.51562116  0.09618047  0.32353090    -0.05800
H646        H  0.54207040  0.14735574  0.26156811     0.06600
H647        H  0.51455247  0.06274656  0.31637757     0.10000
Br648      Br  0.56192101  0.15556281  0.36753279    -0.05500
Br649      Br  0.45555485  0.14159772  0.32553199    -0.02500
Br650      Br  0.56099571  0.12950673  0.20855279     0.00400
Br651      Br  0.49855330  0.08300300  0.37126248    -0.04000
C652        C  0.31096686  0.86846273  0.47876135    -0.11400
C653        C  0.31223011  0.84743612  0.47560746     0.04100
C654        C  0.29354197  0.82416042  0.49158948    -0.11900
C655        C  0.27345591  0.82123986  0.01116347     0.18900
C656        C  0.27334725  0.84260550  0.01720162    -0.09000
C657        C  0.29175817  0.86575967  0.00064775    -0.01900
H658        H  0.29421277  0.80799588  0.48768028     0.05500
C659        C  0.25331283  0.79615688  0.02611409     0.20900
H660        H  0.29034911  0.88164471  0.00295737     0.10600
C661        C  0.25855083  0.78312216  0.05373649    -0.15300
C662        C  0.23969777  0.76153159  0.07315878     0.03600
C663        C  0.21500558  0.75290274  0.06568864    -0.10600
C664        C  0.20979367  0.76439387  0.53490331    -0.00700
C665        C  0.22881094  0.78571574  0.51465801    -0.05800
H666        H  0.27730870  0.79046922  0.06163540     0.06600
H667        H  0.19096481  0.75783338  0.52854150     0.10000
Br668      Br  0.24849841  0.84122295  0.04774504    -0.05500
Br669      Br  0.33744645  0.84883731  0.44615111    -0.02500
Br670      Br  0.24864200  0.74548467  0.11172453     0.00400
Br671      Br  0.22048836  0.80007625  0.47269141    -0.04000
C672        C  0.36742622  0.91393464  0.97205390    -0.11400
C673        C  0.36702057  0.92762143  0.00095362     0.04100
C674        C  0.38672792  0.93926581  0.02509547    -0.11900
C675        C  0.40753961  0.93818618  0.02090141     0.18900
C676        C  0.40792233  0.92426265  0.99237581    -0.09000
C677        C  0.38804649  0.91239355  0.96822216    -0.01900
H678        H  0.38615280  0.94996969  0.04664962     0.05500
C679        C  0.42875179  0.95260014  0.04574306     0.20900
H680        H  0.38894127  0.90247961  0.94571135     0.10600
C681        C  0.43497188  0.94019530  0.07325526    -0.15300
C682        C  0.45384528  0.95333329  0.09853476     0.03600
C683        C  0.46705628  0.97958187  0.09673474    -0.10600
C684        C  0.46058403  0.99185070  0.06923096    -0.00700
C685        C  0.44183039  0.97872574  0.04400288    -0.05800
H686        H  0.42480034  0.92011972  0.07549131     0.06600
H687        H  0.47060551  0.01192104  0.06656908     0.10000
Br688      Br  0.43573354  0.92217342  0.98380222    -0.05500
Br689      Br  0.34121937  0.93333866  0.00652515    -0.02500
Br690      Br  0.45967229  0.93418283  0.13608105     0.00400
Br691      Br  0.43540035  0.99749946  0.00658607    -0.04000
C692        C  0.46975273  0.98437536  0.24356204    -0.11400
C693        C  0.45507448  0.99383502  0.25082857     0.04100
C694        C  0.43636249  0.98170296  0.27857784    -0.11900
C695        C  0.43190033  0.96026865  0.29968464     0.18900
C696        C  0.44554793  0.95003890  0.29106085    -0.09000
C697        C  0.46416572  0.96201555  0.26318776    -0.01900
H698        H  0.42536897  0.98920944  0.28406526     0.05500
C699        C  0.41240095  0.94844536  0.32963544     0.20900
H700        H  0.47516450  0.95442614  0.25834990     0.10600
C701        C  0.39199785  0.92461208  0.32552675    -0.15300
C702        C  0.37274098  0.91311309  0.35216961     0.08400
C703        C  0.37335694  0.92569692  0.38342548    -0.10600
C704        C  0.39396808  0.94933299  0.38816081    -0.00700
C705        C  0.41347654  0.96074671  0.36156056    -0.05800
H706        H  0.39093459  0.91497741  0.30117843     0.06600
H707        H  0.39461173  0.95915736  0.41199877     0.10000
Br708      Br  0.44075253  0.92074750  0.31835516    -0.05500
Br709      Br  0.45927521  0.02305188  0.22400233    -0.02500
Br710      Br  0.34606519  0.88003977  0.34430332     0.00400
Br711      Br  0.44120001  0.99300907  0.37014992    -0.04000
C712        C  0.59249768  0.75773971  0.43153872    -0.11400
C713        C  0.60939739  0.78262596  0.43920847     0.04100
C714        C  0.60152459  0.79891517  0.44187896    -0.11900
C715        C  0.57675180  0.79064510  0.43818509     0.18900
C716        C  0.55952270  0.76505122  0.43587567    -0.09000
C717        C  0.56745695  0.74886168  0.43241902    -0.01900
H718        H  0.61496671  0.81836457  0.44478758     0.05500
C719        C  0.56950234  0.80905580  0.43305106     0.20900
H720        H  0.55412638  0.72981047  0.42699932     0.10600
C721        C  0.55895927  0.81081133  0.39904555    -0.15300
C722        C  0.55017240  0.82650442  0.39398229     0.03600
C723        C  0.55264545  0.84154209  0.42257216    -0.10600
C724        C  0.56465628  0.84101086  0.95554153    -0.00700
C725        C  0.57274124  0.82473677  0.46121714    -0.05800
H726        H  0.55666840  0.79915130  0.37687419     0.06600
H727        H  0.56595764  0.85186216  0.97835674     0.10000
Br728      Br  0.52500930  0.75154475  0.43553006    -0.05500
Br729      Br  0.64369071  0.79558909  0.44373038    -0.02500
Br730      Br  0.53329072  0.82547620  0.34885356     0.00400
Br731      Br  0.58546866  0.82264851  0.00936868    -0.04000
C732        C  0.54010902  0.90267169  0.96473386    -0.11400
C733        C  0.54556038  0.90533699  0.00331046     0.04100
C734        C  0.55111298  0.92689945  0.01917484    -0.11900
C735        C  0.55217636  0.94641224  0.99703295     0.18900
C736        C  0.54874720  0.94469688  0.95802127    -0.09000
C737        C  0.54168936  0.92250684  0.94247714    -0.01900
H738        H  0.55398197  0.92818802  0.04920888     0.05500
C739        C  0.55357549  0.96661590  0.01629655     0.20900
H740        H  0.53738276  0.92078574  0.41306966     0.10600
C741        C  0.57402013  0.98168418  0.03776928    -0.15300
C742        C  0.57364807  0.99764184  0.06204676     0.03600
C743        C  0.55263395  0.99869576  0.06464515    -0.10600
C744        C  0.53289485  0.98472971  0.04142907    -0.00700
C745        C  0.53299257  0.96845047  0.01801585    -0.05800
H746        H  0.58986449  0.98026356  0.03675736     0.06600
H747        H  0.51640745  0.98496714  0.04366258     0.10000
Br748      Br  0.55398524  0.97242273  0.92538620    -0.05500
Br749      Br  0.54587183  0.88029186  0.03591729    -0.02500
Br750      Br  0.60199702  0.01738968  0.09106808     0.00400
Br751      Br  0.50313230  0.94675524  0.99327419    -0.04000
C752        C  0.55378554  0.89250232  0.38742367    -0.11400
C753        C  0.57406535  0.91722210  0.38537778     0.04100
C754        C  0.57495636  0.93497387  0.35846424    -0.11900
C755        C  0.55599096  0.92828468  0.33285767     0.18900
C756        C  0.53772050  0.90294823  0.33144491    -0.09000
C757        C  0.53661914  0.88540796  0.35868083    -0.01900
H758        H  0.58961515  0.95426397  0.35917098     0.05500
C759        C  0.55468618  0.94791429  0.30963490     0.20900
H760        H  0.52100358  0.86648222  0.35946917     0.10600
C761        C  0.57143575  0.96141203  0.27950303    -0.15300
C762        C  0.57041089  0.97963853  0.25662379     0.03600
C763        C  0.55287702  0.98554602  0.26456407    -0.10600
C764        C  0.53640825  0.97224378  0.29529514    -0.00700
C765        C  0.53685586  0.95334920  0.31715306    -0.05800
H766        H  0.58507780  0.95732785  0.27316986     0.06600
H767        H  0.52236569  0.97580288  0.30145674     0.10000
Br768      Br  0.51307885  0.89160173  0.29407662    -0.05500
Br769      Br  0.59888120  0.92791794  0.92236096    -0.02500
Br770      Br  0.59357813  0.99547404  0.21494843     0.00400
Br771      Br  0.51199117  0.93493958  0.35603955    -0.04000
N772        N  0.54658196  0.87691984  0.92247707    -0.02900
C773        C  0.53724740  0.85208099  0.92388655    -0.00300
C774        C  0.51666578  0.83925739  0.44754376    -0.23200
C775        C  0.51394934  0.85645746  0.46301184    -0.23400
C776        C  0.53286211  0.87928772  0.44817285    -0.00400
H777        H  0.50696211  0.81975108  0.45703516     0.13400
H778        H  0.50105927  0.85283786  0.48534662     0.13400
N779        N  0.34858647  0.90450039  0.94413612    -0.02900
C780        C  0.32397413  0.88996015  0.95107852    -0.00300
C781        C  0.31157783  0.89235269  0.92088747    -0.23200
C782        C  0.32888252  0.90818139  0.89391154    -0.23400
C783        C  0.35133995  0.91486678  0.90834574    -0.00400
H784        H  0.29197256  0.88173905  0.91737192     0.13400
H785        H  0.32536094  0.91243110  0.86544186     0.13400
O786        O  0.53860994  0.01311244  0.75058619    -0.79600
O787        O  0.56551013  0.06913718  0.59592646    -0.79600
O788        O  0.55418184  0.00852049  0.62779583    -0.79600
O789        O  0.59199977  0.09832806  0.70104999    -0.79500
O790        O  0.53612068  0.02048386  0.58647144    -0.79700
O791        O  0.57704735  0.06125030  0.73040423    -0.79600
O792        O  0.58838908  0.07055273  0.64354938    -0.79600
O793        O  0.55563117  0.00678916  0.70497928    -0.79600
C794        C  0.54961003  0.00323771  0.73935580     1.10100
C795        C  0.58644315  0.07543699  0.60889036     1.10000
C796        C  0.54869700  0.01104466  0.59420187     1.10200
C797        C  0.59371079  0.08477514  0.72711104     1.10000
O798        O  0.53677316  0.05406612  0.76636041    -0.79600
O799        O  0.49570223  0.01690766  0.62504217    -0.79600
O800        O  0.50294357  0.98807317  0.70842522    -0.79600
O801        O  0.56210035  0.09427888  0.64205937    -0.79600
O802        O  0.52423027  0.06592299  0.63648907    -0.79600
O803        O  0.50366584  0.02214512  0.71697407    -0.79600
O804        O  0.54347806  0.07685536  0.71324267    -0.79500
O805        O  0.50221010  0.98684374  0.63146549    -0.79600
Co806      Co  0.53933673  0.04169565  0.72042739     1.51500
Co807      Co  0.53053700  0.04297312  0.61426303     1.51700
Co808      Co  0.52990231  0.99986688  0.66844743     1.51600
Co809      Co  0.56548989  0.07082786  0.67894816     1.51500
O810        O  0.54013151  0.03598210  0.66565260    -1.41500
C811        C  0.53827683  0.07285128  0.74899993     1.10100
C812        C  0.48880692  0.99479028  0.62027117     1.10100
C813        C  0.49274264  0.99877113  0.72043002     1.10100
C814        C  0.54129588  0.08812125  0.62995794     1.10100
N815        N  0.49163815  0.17172102  0.89164669    -0.02900
C816        C  0.47943403  0.18350229  0.88531334    -0.00300
C817        C  0.46742145  0.18194417  0.91832396    -0.23200
C818        C  0.47235863  0.16931365  0.44569491    -0.23400
C819        C  0.48741921  0.16359594  0.92886432    -0.00400
H820        H  0.45809755  0.19128274  0.92320695     0.13400
H821        H  0.46723460  0.16641598  0.47531141     0.13400
N822        N  0.73128909  0.19307942  0.93526346    -0.02900
C823        C  0.75397612  0.21417373  0.93680969    -0.00300
C824        C  0.76661604  0.21967252  0.90279347    -0.23200
C825        C  0.75128423  0.20201999  0.87931648    -0.23400
C826        C  0.72986359  0.18600666  0.89978668    -0.00400
H827        H  0.78513416  0.23499944  0.89577015     0.13400
H828        H  0.75509745  0.20125930  0.85015213     0.13400
O829        O  0.05197177  0.57150785  0.91733333    -0.79600
O830        O  0.01414810  0.53325333  0.78252958    -0.79600
O831        O  0.08043391  0.56904126  0.83532913    -0.79600
O832        O  0.00367982  0.54604128  0.91247295    -0.79500
O833        O  0.04544665  0.56598529  0.83148056    -0.79700
O834        O  0.01537150  0.54070602  0.96944300    -0.79600
O835        O  0.99943693  0.54246898  0.82956000    -0.79600
O836        O  0.08385152  0.56914241  0.91208880    -0.79600
C837        C  0.07462997  0.58099779  0.92140804     1.10100
C838        C  0.00171397  0.54154899  0.79357184     1.10000
C839        C  0.06788047  0.57778360  0.82325982     1.10200
C840        C  0.00100222  0.54420810  0.94881498     1.10000
O841        O  0.01276806  0.49943178  0.94854186    -0.79600
O842        O  0.05525974  0.53289789  0.79658432    -0.79600
O843        O  0.06758001  0.51817934  0.91878836    -0.79600
O844        O  0.98032310  0.49034130  0.84458739    -0.79600
O845        O  0.01286937  0.49439769  0.82221589    -0.79600
O846        O  0.05717226  0.53393176  0.96168854    -0.79600
O847        O  0.98075527  0.49258065  0.91918744    -0.79500
O848        O  0.06644090  0.51737681  0.84232935    -0.79600
Co849      Co  0.03094049  0.53470202  0.93011795     1.51500
Co850      Co  0.02810644  0.52990940  0.82791678     1.51700
Co851      Co  0.07171964  0.54210770  0.87713279     1.51600
Co852      Co  0.99619010  0.51918537  0.87690946     1.51500
O853        O  0.03395996  0.52576459  0.88010847    -1.41500
C854        C  0.99024314  0.48580537  0.94416030     1.10100
C855        C  0.06705431  0.52322702  0.80770626     1.10100
C856        C  0.06776962  0.52295541  0.95262323     1.10100
C857        C  0.99014010  0.48186739  0.82613944     1.10100
N858        N  0.19208756  0.51469569  0.61343919    -0.02900
C859        C  0.21390165  0.51629227  0.61281744    -0.00300
C860        C  0.22027286  0.51342028  0.64931821    -0.23200
C861        C  0.20204682  0.50989587  0.67302288    -0.23400
C862        C  0.18511987  0.51078821  0.65034791    -0.00400
H863        H  0.23670146  0.51413136  0.65780447     0.13400
H864        H  0.20153583  0.50767620  0.70350257     0.13400
N865        N  0.89488989  0.33687479  0.62964477    -0.02900
C866        C  0.87748511  0.31293694  0.62398648    -0.00300
C867        C  0.87286044  0.29789920  0.65668399    -0.23200
C868        C  0.88742312  0.31309328  0.68366451    -0.23400
C869        C  0.90067679  0.33693524  0.66652300    -0.00400
H870        H  0.85896424  0.27831459  0.66118899     0.13400
H871        H  0.88714357  0.30761152  0.71325924     0.13400
N872        N  0.88533899  0.56788567  0.58990566    -0.02900
C873        C  0.86671582  0.57180683  0.59034075    -0.00300
C874        C  0.86568462  0.57999889  0.62468423    -0.23200
C875        C  0.88406742  0.58119606  0.64597200    -0.23400
C876        C  0.89586043  0.57375262  0.62406080    -0.00400
H877        H  0.85248564  0.58407748  0.63362032     0.13400
H878        H  0.88804642  0.58635278  0.67467223     0.13400
N879        N  0.17346319  0.71685621  0.59263609    -0.02900
C880        C  0.19605996  0.73789282  0.59540279    -0.00300
C881        C  0.19955882  0.74518726  0.63175870    -0.23200
C882        C  0.17921509  0.72780725  0.65263320    -0.23400
C883        C  0.16371002  0.71050576  0.62842759    -0.00400
H884        H  0.21546182  0.76141102  0.64209939     0.13400
H885        H  0.17632599  0.72733844  0.68262866     0.13400
O886        O  0.50282164  0.48917076  0.62712276    -0.79600
O887        O  0.48095950  0.50342519  0.71489005    -0.79600
O888        O  0.54083980  0.48696318  0.71384320    -0.79600
O889        O  0.48863340  0.52796456  0.63052731    -0.79500
O890        O  0.50307581  0.47694280  0.72277759    -0.79700
O891        O  0.50431934  0.52534079  0.57818401    -0.79600
O892        O  0.49280747  0.54185020  0.70281041    -0.79600
O893        O  0.53745710  0.49103352  0.63741739    -0.79600
C894        C  0.51574879  0.47999319  0.62472343     1.10100
C895        C  0.47721383  0.52047561  0.71801406     1.10000
C896        C  0.51922578  0.47182482  0.72713962     1.10200
C897        C  0.48710120  0.52517462  0.59458384     1.10000
O898        O  0.53930586  0.56448147  0.61305724    -0.79600
O899        O  0.54395647  0.51774836  0.75817450    -0.79600
O900        O  0.57244273  0.54511769  0.63790959    -0.79600
O901        O  0.54476702  0.57021804  0.69989929    -0.79600
O902        O  0.52349432  0.54433811  0.74892904    -0.79600
O903        O  0.54763143  0.52842780  0.59309081    -0.79600
O904        O  0.51833136  0.57620943  0.64317767    -0.79500
O905        O  0.57262022  0.54002933  0.71429494    -0.79600
Co906      Co  0.51997860  0.52558207  0.62384890     1.51500
Co907      Co  0.51303309  0.51085206  0.73243701     1.51700
Co908      Co  0.55463071  0.51672962  0.67563499     1.51600
Co909      Co  0.51892400  0.54870446  0.66514838     1.51500
O910        O  0.52749827  0.52331175  0.67896387    -1.41500
C911        C  0.53289443  0.58020922  0.61628689     1.10100
C912        C  0.56636499  0.53302744  0.74865282     1.10100
C913        C  0.56940751  0.53971867  0.60426679     1.10100
C914        C  0.53986582  0.56601847  0.73515958     1.10100
N915        N  0.49773035  0.34461535  0.93085776    -0.02900
C916        C  0.49724419  0.32313898  0.93315981    -0.00300
C917        C  0.49106371  0.31213296  0.96962465    -0.23200
C918        C  0.48842801  0.32752020  0.99068311    -0.23400
C919        C  0.49279262  0.34741027  0.96653537    -0.00400
H920        H  0.48899391  0.29481044  0.97994581     0.13400
H921        H  0.48429988  0.32476544  0.52049294     0.13400
N922        N  0.35341221  0.51668791  0.93546837    -0.02900
C923        C  0.33484813  0.52065722  0.93763223    -0.00300
C924        C  0.32588677  0.52102423  0.90224275    -0.23200
C925        C  0.33949423  0.51784069  0.87722711    -0.23400
C926        C  0.35640542  0.51559602  0.89796881    -0.00400
H927        H  0.31110188  0.52363778  0.89537284     0.13400
H928        H  0.33767114  0.51776045  0.84695040     0.13400
N929        N  0.71321528  0.57199297  0.94911782    -0.02900
C930        C  0.73783899  0.58174583  0.94982742    -0.00300
C931        C  0.74823236  0.59201871  0.91420243    -0.23200
C932        C  0.72976153  0.58865212  0.89097243    -0.23400
C933        C  0.70862926  0.57639549  0.91305165    -0.00400
H934        H  0.76707921  0.59979945  0.90554564     0.13400
H935        H  0.73140126  0.59383691  0.86101150     0.13400
N936        N  0.58927061  0.71878739  0.91241840    -0.02900
C937        C  0.60065297  0.74391748  0.91130566    -0.00300
C938        C  0.61544343  0.75482386  0.87903584    -0.23200
C939        C  0.61328658  0.73612210  0.85987353    -0.23400
C940        C  0.59709038  0.71425509  0.88068599    -0.00400
H941        H  0.62503071  0.77416506  0.86865285     0.13400
H942        H  0.62142630  0.73812095  0.83248830     0.13400
C943        C  0.37541154  0.51356168  0.87940762    -0.11400
C944        C  0.40021801  0.53316479  0.87725850     0.04100
C945        C  0.41659432  0.53264492  0.85279027    -0.11900
C946        C  0.40841021  0.51356748  0.82847205     0.18900
C947        C  0.38362875  0.49378029  0.83112217    -0.09000
C948        C  0.36753583  0.49388865  0.85653512    -0.01900
H949        H  0.43556611  0.54795560  0.85117105     0.05500
C950        C  0.42552869  0.51517192  0.79936780     0.20900
H951        H  0.34833623  0.47915451  0.85691602     0.10600
C952        C  0.42925954  0.49570794  0.79818286    -0.15300
C953        C  0.44449547  0.49603153  0.77047644     0.03600
C954        C  0.45754100  0.51691143  0.74393716    -0.10600
C955        C  0.45364152  0.53634442  0.74518875    -0.00700
C956        C  0.43772050  0.53553454  0.77213599    -0.05800
H957        H  0.42005674  0.47996239  0.81893491     0.06600
H958        H  0.46317626  0.55247282  0.72518755     0.10000
Br959      Br  0.36997157  0.46742502  0.79806254    -0.05500
Br960      Br  0.41191350  0.56279424  0.90228385    -0.02500
Br961      Br  0.44614742  0.46707778  0.77145063     0.00400
Br962      Br  0.43281078  0.56248175  0.76941482    -0.04000
C963        C  0.46533027  0.52140660  0.57316166    -0.11400
C964        C  0.46601005  0.52574947  0.53330227     0.04100
C965        C  0.44554867  0.52303428  0.51466952    -0.11900
C966        C  0.42416087  0.51643846  0.53459460     0.18900
C967        C  0.42324688  0.51194067  0.57407830    -0.09000
C968        C  0.44360969  0.51443603  0.59294934    -0.01900
H969        H  0.44656645  0.52676419  0.48432380     0.05500
C970        C  0.40353125  0.51530290  0.51347266     0.20900
H971        H  0.44244701  0.51104251  0.62334717     0.10600
C972        C  0.38748947  0.49429729  0.99419257    -0.15300
C973        C  0.36964652  0.49382541  0.97074175     0.03600
C974        C  0.36782170  0.51475500  0.96542951    -0.10600
C975        C  0.38283811  0.53516424  0.48657320    -0.00700
C976        C  0.40069305  0.53562170  0.51008402    -0.05800
H977        H  0.38912875  0.47836631  0.99697094     0.06600
H978        H  0.38168157  0.55136563  0.48285843     0.10000
Br979      Br  0.39453357  0.50251706  0.60325351    -0.05500
Br980      Br  0.49466077  0.53728565  0.50215362    -0.02500
Br981      Br  0.34765752  0.46393419  0.94722022     0.00400
Br982      Br  0.42202015  0.56506166  0.53504238    -0.04000
C983        C  0.55114194  0.58646414  0.76087953    -0.11400
C984        C  0.57259651  0.60996099  0.75134957     0.04100
C985        C  0.58065841  0.62898738  0.77556356    -0.11900
C986        C  0.56795316  0.62511029  0.80953359     0.18900
C987        C  0.54729452  0.60150734  0.81994354    -0.09000
C988        C  0.53916935  0.58249078  0.79589748    -0.01900
H989        H  0.59657483  0.64719159  0.76733160     0.05500
C990        C  0.57427143  0.64674127  0.83047173     0.20900
H991        H  0.52271317  0.56472381  0.80416866     0.10600
C992        C  0.56784437  0.66301833  0.81480571    -0.15300
C993        C  0.57412013  0.68435055  0.83206767     0.03600
C994        C  0.58709456  0.68979686  0.86583910    -0.10600
C995        C  0.59287018  0.67311503  0.88238480    -0.00700
C996        C  0.58658416  0.65164914  0.86485583    -0.05800
H997        H  0.55808020  0.65920779  0.78868003     0.06600
H998        H  0.60305399  0.67725664  0.90810113     0.10000
Br999      Br  0.52844067  0.59491822  0.86528129    -0.05500
Br1000     Br  0.59184926  0.61752223  0.70609342    -0.02500
Br1001     Br  0.56434307  0.70540835  0.80827940     0.00400
Br1002     Br  0.59621815  0.63030944  0.88762266    -0.04000
C1003       C  0.54177797  0.60233565  0.58864567    -0.11400
C1004       C  0.56192470  0.61129676  0.56323322     0.04100
C1005       C  0.56813856  0.63107632  0.53630258    -0.11900
C1006       C  0.55485091  0.64252562  0.53385228     0.18900
C1007       C  0.53481638  0.63370913  0.55899104    -0.09000
C1008       C  0.52854710  0.61397134  0.58601076    -0.01900
H1009       H  0.58357844  0.63766622  0.51706077     0.05500
C1010       C  0.56243351  0.66365955  0.50498518     0.20900
H1011       H  0.51288298  0.60744670  0.60470277     0.10600
C1012       C  0.54713828  0.66100366  0.97471828    -0.15300
C1013       C  0.55495021  0.67978301  0.94528969     0.03600
C1014       C  0.57853798  0.70151824  0.94538016    -0.10600
C1015       C  0.59326193  0.70470025  0.47664505    -0.00700
C1016       C  0.58539906  0.68608607  0.50619077    -0.05800
H1017       H  0.52928433  0.64404176  0.97363933     0.06600
H1018       H  0.61140200  0.72134444  0.47712060     0.10000
Br1019     Br  0.51574783  0.64835014  0.55807679    -0.05500
Br1020     Br  0.58244652  0.59828802  0.56396281    -0.02500
Br1021     Br  0.53277206  0.67519297  0.90590980     0.00400
Br1022     Br  0.60676812  0.69205793  0.54752245    -0.04000
C1023       C  0.58573309  0.54046113  0.77705167    -0.11400
C1024       C  0.58155964  0.54039304  0.81599710     0.04100
C1025       C  0.60007494  0.54534705  0.84160159    -0.11900
C1026       C  0.62292715  0.55065920  0.82915135     0.18900
C1027       C  0.62731250  0.55140888  0.79033191    -0.09000
C1028       C  0.60890750  0.54639723  0.76482896    -0.01900
H1029       H  0.59665419  0.54508569  0.87136876     0.05500
C1030       C  0.64225494  0.55556961  0.85648645     0.20900
H1031       H  0.61267346  0.54662584  0.73521956     0.10600
C1032       C  0.64991090  0.53890778  0.86135405    -0.15300
C1033       C  0.67085298  0.54495928  0.88153877     0.03600
C1034       C  0.68420866  0.56775255  0.89787970    -0.10600
C1035       C  0.67576229  0.58376013  0.89507565    -0.00700
C1036       C  0.65490858  0.57782542  0.87453883    -0.05800
H1037       H  0.64030991  0.52173242  0.84766341     0.06600
H1038       H  0.68608195  0.60143477  0.90730791     0.10000
Br1039     Br  0.65835229  0.55957212  0.77050820    -0.05500
Br1040     Br  0.55165738  0.53497630  0.83599640    -0.02500
Br1041     Br  0.68176488  0.52252162  0.88348258     0.00400
Br1042     Br  0.64575273  0.60165628  0.86899100    -0.04000
C1043       C  0.69607394  0.56555352  0.97990967    -0.11400
C1044       C  0.69487066  0.58438427  0.99550628     0.04100
C1045       C  0.67431899  0.57854406  0.51697816    -0.11900
C1046       C  0.65420123  0.55403309  0.52297619     0.18900
C1047       C  0.65545204  0.53501735  0.50799791    -0.09000
C1048       C  0.67624444  0.54087280  0.48664526    -0.01900
H1049       H  0.67356409  0.59343511  0.52772533     0.05500
C1050       C  0.63205631  0.54924424  0.54382398     0.20900
H1051       H  0.67641691  0.52631307  0.47357521     0.10600
C1052       C  0.60997296  0.54092212  0.52510648    -0.15300
C1053       C  0.58938483  0.53798548  0.54346561     0.03600
C1054       C  0.59070820  0.54376600  0.58143937    -0.10600
C1055       C  0.61300641  0.55217201  0.59977388    -0.00700
C1056       C  0.63329672  0.55476257  0.58159549    -0.05800
H1057       H  0.60882375  0.53692828  0.49585359     0.06600
H1058       H  0.61470684  0.55639262  0.62896605     0.10000
Br1059     Br  0.62905078  0.50093553  0.51527136    -0.05500
Br1060     Br  0.71947564  0.61870898  0.98406748    -0.02500
Br1061     Br  0.56037885  0.52625771  0.51470778     0.00400
Br1062     Br  0.66211049  0.56502486  0.61027705    -0.04000
C1063       C  0.51433547  0.45055583  0.75349233    -0.11400
C1064       C  0.50667414  0.44869269  0.79117890     0.04100
C1065       C  0.50450114  0.43008377  0.81699719    -0.11900
C1066       C  0.50963602  0.41280942  0.80627546     0.18900
C1067       C  0.51668680  0.41415399  0.76840027    -0.09000
C1068       C  0.51946695  0.43325201  0.74254404    -0.01900
H1069       H  0.49901956  0.42925831  0.84594271     0.05500
C1070       C  0.50665958  0.39337834  0.83532924     0.20900
H1071       H  0.52538929  0.43444131  0.71375210     0.10600
C1072       C  0.48352578  0.37720170  0.85288352    -0.15300
C1073       C  0.48032951  0.36075059  0.88368739     0.03600
C1074       C  0.50034079  0.35991053  0.89722438    -0.10600
C1075       C  0.52320939  0.37506521  0.87857567    -0.00700
C1076       C  0.52670369  0.39233511  0.84868459    -0.05800
H1077       H  0.46798797  0.37785906  0.84317820     0.06600
H1078       H  0.53866233  0.37444797  0.88879292     0.10000
Br1079     Br  0.52148671  0.38970308  0.75032217    -0.05500
Br1080     Br  0.50057383  0.47202571  0.81020271    -0.02500
Br1081     Br  0.44824040  0.33949868  0.90631639     0.00400
Br1082     Br  0.55956169  0.41585480  0.83020483    -0.04000
C1083       C  0.50707413  0.45775116  0.60339501    -0.11400
C1084       C  0.48991453  0.45106653  0.57423244     0.04100
C1085       C  0.48592619  0.43280244  0.55069603    -0.11900
C1086       C  0.49844429  0.42068951  0.55558297     0.18900
C1087       C  0.51439303  0.42621356  0.58584464    -0.09000
C1088       C  0.51858695  0.44454941  0.60927536    -0.01900
H1089       H  0.47351549  0.42855064  0.52760997     0.05500
C1090       C  0.49561764  0.40326407  0.52789600     0.20900
H1091       H  0.53147226  0.44893513  0.63169126     0.10600
C1092       C  0.51590186  0.40926476  0.50534147    -0.15300
C1093       C  0.51496909  0.39208020  0.48231377     0.03600
C1094       C  0.49296086  0.36865604  0.98051497    -0.10600
C1095       C  0.47222090  0.36338040  0.00129080    -0.00700
C1096       C  0.47347672  0.38033635  0.52492955    -0.05800
H1097       H  0.53302640  0.42688766  0.50744546     0.06600
H1098       H  0.45547695  0.34522276  0.00107128     0.10000
Br1099     Br  0.53101346  0.40930356  0.59628129    -0.05500
Br1100     Br  0.47235439  0.46685394  0.56244698    -0.02500
Br1101     Br  0.54519836  0.40034148  0.45941326     0.00400
Br1102     Br  0.44519597  0.37014693  0.55594882    -0.04000
C1103       C  0.84773181  0.56618576  0.56175965    -0.11400
C1104       C  0.82309610  0.54805831  0.07131865     0.04100
C1105       C  0.80417423  0.54875606  0.05299132    -0.11900
C1106       C  0.80917212  0.56700490  0.02383760     0.18900
C1107       C  0.83382905  0.58362266  0.51161428    -0.09000
C1108       C  0.85285107  0.58334570  0.53083179    -0.01900
H1109       H  0.78547698  0.53565371  0.06291746     0.05500
C1110       C  0.78870469  0.56948898  0.00896458     0.20900
H1111       H  0.87169984  0.59755092  0.52306319     0.10600
C1112       C  0.79071464  0.59234932  0.50959432    -0.15300
C1113       C  0.77292036  0.59609609  0.99388422     0.03600
C1114       C  0.75165636  0.57644081  0.97860326    -0.10600
C1115       C  0.74874956  0.55308449  0.98023822    -0.00700
C1116       C  0.76708939  0.54956875  0.99460231    -0.05800
H1117       H  0.80682386  0.60778122  0.52112342     0.06600
H1118       H  0.73320023  0.53806680  0.96698703     0.10000
Br1119     Br  0.84276032  0.60748436  0.46918129    -0.05500
Br1120     Br  0.81430463  0.52294281  0.11176180    -0.02500
Br1121     Br  0.78000838  0.62927136  0.48992129     0.00400
Br1122     Br  0.76291756  0.51804472  0.98939349    -0.04000
C1123       C  0.23054713  0.52153591  0.58027409    -0.11400
C1124       C  0.22495514  0.50385829  0.55428674     0.04100
C1125       C  0.24375931  0.50577272  0.53220892    -0.11900
C1126       C  0.26853565  0.52431363  0.53700461     0.18900
C1127       C  0.27396997  0.54258546  0.06194888    -0.09000
C1128       C  0.25508940  0.54130503  0.08255568    -0.01900
H1129       H  0.23910940  0.49188263  0.51261077     0.05500
C1130       C  0.28836514  0.52421603  0.01616296     0.20900
H1131       H  0.25986552  0.55466540  0.10319003     0.10600
C1132       C  0.30552094  0.54539620  0.99341923    -0.15300
C1133       C  0.32334826  0.54551901  0.97168334     0.03600
C1134       C  0.32400249  0.52396943  0.97120205    -0.10600
C1135       C  0.30780076  0.50319466  0.49527838    -0.00700
C1136       C  0.29020268  0.50317770  0.51784153    -0.05800
H1137       H  0.30455075  0.56172914  0.99149138     0.06600
H1138       H  0.30769894  0.48632705  0.49464094     0.10000
Br1139     Br  0.30693694  0.56786125  0.07306343    -0.05500
Br1140     Br  0.19268406  0.47492958  0.55167762    -0.02500
Br1141     Br  0.34546396  0.57514392  0.94061592     0.00400
Br1142     Br  0.26887859  0.47370718  0.54971876    -0.04000
C1143       C  0.99085420  0.55066303  0.76450685    -0.11400
C1144       C  0.98120987  0.56505427  0.77240844     0.04100
C1145       C  0.96853896  0.57012947  0.74462694    -0.11900
C1146       C  0.96559237  0.56157506  0.70856605     0.18900
C1147       C  0.97706299  0.54923029  0.69959259    -0.09000
C1148       C  0.98933665  0.54377017  0.72735265    -0.01900
H1149       H  0.96041149  0.58033317  0.75149532     0.05500
C1150       C  0.94913882  0.56425072  0.68187645     0.20900
H1151       H  0.99715832  0.53339970  0.71987913     0.10600
C1152       C  0.95566249  0.58788827  0.66652470    -0.15300
C1153       C  0.93906576  0.59111595  0.64518749     0.03600
C1154       C  0.91559440  0.57051736  0.63860653    -0.10600
C1155       C  0.90939596  0.54685523  0.65300503    -0.00700
C1156       C  0.92584817  0.54358480  0.67447848    -0.05800
H1157       H  0.97339073  0.60395752  0.67225297     0.06600
H1158       H  0.89107252  0.53102333  0.64983105     0.10000
Br1159     Br  0.97634108  0.53933307  0.64983724    -0.05500
Br1160     Br  0.98521292  0.57905055  0.81974696    -0.02500
Br1161     Br  0.94858099  0.62410649  0.62740081     0.00400
Br1162     Br  0.91459903  0.51084617  0.69655390    -0.04000
C1163       C  0.98228259  0.54752776  0.96572233    -0.11400
C1164       C  0.95907463  0.53807667  0.94950003     0.04100
C1165       C  0.94162833  0.54117456  0.96622806    -0.11900
C1166       C  0.94676497  0.55375129  0.99892008     0.18900
C1167       C  0.96970736  0.56288002  0.01549667    -0.09000
C1168       C  0.98715077  0.55961652  0.99903331    -0.01900
H1169       H  0.92390596  0.53368993  0.95366848     0.05500
C1170       C  0.92784882  0.55667190  0.01603521     0.20900
H1171       H  0.00465309  0.56673927  0.01216732     0.10600
C1172       C  0.90743094  0.53613333  0.03533113    -0.15300
C1173       C  0.89110496  0.53907184  0.55633261     0.03600
C1174       C  0.89563064  0.56291019  0.05888037    -0.10600
C1175       C  0.91475692  0.58301548  0.03690330    -0.00700
C1176       C  0.93058960  0.57998373  0.01512574    -0.05800
H1177       H  0.90465087  0.51794022  0.03531882     0.06600
H1178       H  0.91824390  0.60139110  0.03857553     0.10000
Br1179     Br  0.97775151  0.57941507  0.06118800    -0.05500
Br1180     Br  0.94925388  0.51932820  0.90588703    -0.02500
Br1181     Br  0.86381480  0.51054304  0.58263651     0.00400
Br1182     Br  0.95623777  0.60826862  0.98559452    -0.04000
C1183       C  0.97523151  0.45918348  0.80621037    -0.11400
C1184       C  0.95718588  0.45685652  0.78107727     0.04100
C1185       C  0.94524659  0.43660640  0.75911576    -0.11900
C1186       C  0.95047736  0.41808892  0.76223423     0.18900
C1187       C  0.96783471  0.41989023  0.78831840    -0.09000
C1188       C  0.98036618  0.44056551  0.80959179    -0.01900
H1189       H  0.93197109  0.43542618  0.73909600     0.05500
C1190       C  0.93779286  0.39735231  0.73754283     0.20900
H1191       H  0.99407824  0.44207154  0.82893845     0.10600
C1192       C  0.95117249  0.39501675  0.70938887    -0.15300
C1193       C  0.93949623  0.37584975  0.68515051     0.03600
C1194       C  0.91397819  0.35896131  0.68852521    -0.10600
C1195       C  0.90067094  0.36148281  0.71648514    -0.00700
C1196       C  0.91230760  0.38036541  0.74091352    -0.05800
H1197       H  0.97079931  0.40801019  0.70654526     0.06600
H1198       H  0.88108380  0.34832897  0.71979183     0.10000
Br1199     Br  0.97433238  0.39418721  0.79674100    -0.05500
Br1200     Br  0.94920859  0.48153945  0.77340143    -0.02500
Br1201     Br  0.95932826  0.37254413  0.64994340     0.00400
Br1202     Br  0.89275968  0.38135766  0.77969293    -0.04000
C1203       C  0.97493721  0.46317593  0.97004185    -0.11400
C1204       C  0.95158010  0.44320133  0.96057637     0.04100
C1205       C  0.93759111  0.42298103  0.98706872    -0.11900
C1206       C  0.94619225  0.42229631  0.02323358     0.18900
C1207       C  0.96936081  0.44208330  0.03275416    -0.09000
C1208       C  0.98350909  0.46216044  0.00629617    -0.01900
H1209       H  0.91992512  0.40760720  0.97936283     0.05500
C1210       C  0.93156540  0.40005189  0.04978505     0.20900
H1211       H  0.00119551  0.47727977  0.01444495     0.10600
C1212       C  0.93252983  0.37913276  0.04553518    -0.15300
C1213       C  0.92015969  0.35806951  0.57115629     0.03600
C1214       C  0.90629156  0.35766749  0.60160698    -0.10600
C1215       C  0.90519637  0.37858644  0.60574259    -0.00700
C1216       C  0.91755498  0.39968495  0.07991843    -0.05800
H1217       H  0.94355864  0.37939589  0.02278769     0.06600
H1218       H  0.89480073  0.37859140  0.62918116     0.10000
Br1219     Br  0.98253664  0.44231778  0.08148926    -0.05500
Br1220     Br  0.93799143  0.44164324  0.91174045    -0.02500
Br1221     Br  0.92501099  0.33161458  0.56545305     0.00400
Br1222     Br  0.91500216  0.42746830  0.08694272    -0.04000
C1223       C  0.16397643  0.51063519  0.66527594    -0.11400
C1224       C  0.14513465  0.48984051  0.68680017     0.04100
C1225       C  0.12754703  0.49163663  0.70570162    -0.11900
C1226       C  0.12841617  0.51396693  0.70337222     0.18900
C1227       C  0.14658247  0.53442083  0.68032744    -0.09000
C1228       C  0.16409320  0.53255554  0.66124074    -0.01900
H1229       H  0.11362873  0.47582333  0.72336874     0.05500
C1230       C  0.11238786  0.51639029  0.72914202     0.20900
H1231       H  0.17863633  0.54868660  0.64489600     0.10600
C1232       C  0.11784383  0.51807960  0.76738933    -0.15300
C1233       C  0.10335328  0.52016943  0.79339455     0.03600
C1234       C  0.08257484  0.52037032  0.78120132    -0.10600
C1235       C  0.07727230  0.51885206  0.74263021    -0.00700
C1236       C  0.09191212  0.51672401  0.71669675    -0.05800
H1237       H  0.13373910  0.51804216  0.77701920     0.06600
H1238       H  0.06155995  0.51909164  0.73262895     0.10000
Br1239     Br  0.14957410  0.56585863  0.67687495    -0.05500
Br1240     Br  0.14289534  0.45877183  0.69143519    -0.02500
Br1241     Br  0.11431745  0.52422723  0.84441718     0.00400
Br1242     Br  0.08299933  0.51365686  0.66486625    -0.04000
C1243       C  0.08282174  0.51796584  0.97953792    -0.11400
C1244       C  0.08998733  0.50138138  0.97180091     0.04100
C1245       C  0.10827587  0.50101948  0.99258674    -0.11900
C1246       C  0.11929680  0.51611421  0.02238997     0.18900
C1247       C  0.11106228  0.53139843  0.03196506    -0.09000
C1248       C  0.09312647  0.53233291  0.01053152    -0.01900
H1249       H  0.11401718  0.48881139  0.98532277     0.05500
C1250       C  0.13906545  0.51524773  0.04305395     0.20900
H1251       H  0.08785447  0.54496734  0.01742487     0.10600
C1252       C  0.16290417  0.53662018  0.04308316    -0.15300
C1253       C  0.18155929  0.53632058  0.06332091     0.03600
C1254       C  0.17669478  0.51426758  0.58337855    -0.10600
C1255       C  0.15324751  0.49277187  0.08166607    -0.00700
C1256       C  0.13454303  0.49305622  0.06212196    -0.05800
H1257       H  0.16682771  0.55376325  0.02817828     0.06600
H1258       H  0.14901938  0.47590233  0.59798703     0.10000
Br1259     Br  0.12346816  0.55102039  0.07439692    -0.05500
Br1260     Br  0.07532889  0.47801372  0.93394081    -0.02500
Br1261     Br  0.21266995  0.56671328  0.06583569     0.00400
Br1262     Br  0.10255238  0.46313478  0.06574937    -0.04000
C1263       C  0.14114540  0.68736896  0.64299586    -0.11400
C1264       C  0.13909541  0.66433889  0.64467137     0.04100
C1265       C  0.12218918  0.64495237  0.66998895    -0.11900
C1266       C  0.10776519  0.64841130  0.69433413     0.18900
C1267       C  0.10829455  0.67056285  0.69052686    -0.09000
C1268       C  0.12482611  0.68978537  0.66480903    -0.01900
H1269       H  0.12196801  0.62794115  0.67327381     0.05500
C1270       C  0.09669612  0.63129582  0.72825108     0.20900
H1271       H  0.12651941  0.70751834  0.66430803     0.10600
C1272       C  0.11183019  0.63409453  0.75862415    -0.15300
C1273       C  0.10260634  0.61771363  0.79101942     0.03600
C1274       C  0.07781521  0.59825932  0.79330768    -0.10600
C1275       C  0.06251975  0.59631294  0.76338639    -0.00700
C1276       C  0.07180785  0.61246796  0.73086533    -0.05800
H1277       H  0.13097236  0.64893095  0.75686254     0.06600
H1278       H  0.04361038  0.58153674  0.76426840     0.10000
Br1279     Br  0.08931666  0.67656711  0.72350859    -0.05500
Br1280     Br  0.16178570  0.65957343  0.61914537    -0.02500
Br1281     Br  0.12443945  0.62310012  0.83143484     0.00400
Br1282     Br  0.05016784  0.60733186  0.69018926    -0.04000
C1283       C  0.09014666  0.60361041  0.94217997    -0.11400
C1284       C  0.08983989  0.62535886  0.93645662     0.04100
C1285       C  0.10560232  0.64607333  0.95672189    -0.11900
C1286       C  0.12147443  0.64544945  0.98370769     0.18900
C1287       C  0.12085191  0.62317754  0.99050630    -0.09000
C1288       C  0.10592209  0.60300355  0.96919951    -0.01900
H1289       H  0.10528753  0.66271526  0.95163210     0.05500
C1290       C  0.13651781  0.66706602  0.00702514     0.20900
H1291       H  0.10596100  0.58623384  0.97489496     0.10600
C1292       C  0.12475566  0.67602688  0.02684783    -0.15300
C1293       C  0.13742202  0.69429487  0.05220976     0.03600
C1294       C  0.16205750  0.70303354  0.06012653    -0.10600
C1295       C  0.17453578  0.69603485  0.03762342    -0.00700
C1296       C  0.16213955  0.67868493  0.01063038    -0.05800
H1297       H  0.10547571  0.66855831  0.02296294     0.06600
H1298       H  0.19373664  0.70337103  0.04199232     0.10000
Br1299     Br  0.13781068  0.61798883  0.03120882    -0.05500
Br1300     Br  0.06880320  0.62789334  0.90065180    -0.02500
Br1301     Br  0.12069534  0.70804478  0.57307007     0.00400
Br1302     Br  0.18123004  0.67235183  0.97847172    -0.04000
C1303       C  0.86101919  0.30405176  0.59173664    -0.11400
C1304       C  0.84190626  0.30826440  0.58775172     0.04100
C1305       C  0.82252185  0.29422640  0.56397693    -0.11900
C1306       C  0.82185453  0.27589052  0.54399682     0.18900
C1307       C  0.84196285  0.27321503  0.04563224    -0.09000
C1308       C  0.86094408  0.28665375  0.57021718    -0.01900
H1309       H  0.80747195  0.29695473  0.56219291     0.05500
C1310       C  0.80036075  0.25996532  0.52108134     0.20900
H1311       H  0.87537357  0.28316083  0.07315266     0.10600
C1312       C  0.79590664  0.27067037  0.98872973    -0.15300
C1313       C  0.77853603  0.25578181  0.96308442     0.03600
C1314       C  0.76550713  0.22961036  0.96908365    -0.10600
C1315       C  0.76809751  0.21902490  0.50337360    -0.00700
C1316       C  0.78517626  0.23404550  0.52952240    -0.05800
H1317       H  0.80677589  0.29061285  0.98258391     0.06600
H1318       H  0.75805134  0.19905003  0.50873953     0.10000
Br1319     Br  0.84434843  0.25120259  0.01515172    -0.05500
Br1320     Br  0.84015821  0.33106086  0.61717037    -0.02500
Br1321     Br  0.77397173  0.27226359  0.91948404     0.00400
Br1322     Br  0.78769627  0.21843934  0.57594582    -0.04000
C1323       C  0.48467299  0.20335317  0.85530152    -0.11400
C1324       C  0.46615272  0.20811252  0.84732123     0.04100
C1325       C  0.47197750  0.23255786  0.84392791    -0.11900
C1326       C  0.49641995  0.25265305  0.84447836     0.18900
C1327       C  0.51496900  0.24751310  0.84179902    -0.09000
C1328       C  0.50907581  0.22299096  0.84834551    -0.01900
H1329       H  0.45712978  0.23549049  0.84526487     0.05500
C1330       C  0.50165472  0.27643971  0.85871327     0.20900
H1331       H  0.52371629  0.21978614  0.85253636     0.10600
C1332       C  0.51716153  0.28541867  0.88945704    -0.15300
C1333       C  0.51838442  0.30344184  0.91047596     0.03600
C1334       C  0.50273767  0.31200433  0.90286108    -0.10600
C1335       C  0.48874787  0.30492767  0.87031966    -0.00700
C1336       C  0.48849109  0.28765330  0.84782850    -0.05800
H1337       H  0.52732006  0.27724527  0.89909367     0.06600
H1338       H  0.47691717  0.31164359  0.86358715     0.10000
Br1339     Br  0.54874126  0.27353673  0.83301462    -0.05500
Br1340     Br  0.43216265  0.18184197  0.84915147    -0.02500
Br1341     Br  0.54097995  0.31465288  0.45078619     0.00400
Br1342     Br  0.46969643  0.27993363  0.80303340    -0.04000
C1343       C  0.71331495  0.17822137  0.46536339    -0.11400
C1344       C  0.70037252  0.18658227  0.48373772     0.04100
C1345       C  0.68060131  0.17008994  0.50870068    -0.11900
C1346       C  0.67332636  0.14512716  0.51552842     0.18900
C1347       C  0.68669356  0.13704213  0.49776497    -0.09000
C1348       C  0.70644442  0.15350604  0.47320833    -0.01900
H1349       H  0.67039894  0.17655045  0.52193706     0.05500
C1350       C  0.65121842  0.12737203  0.53975465     0.20900
H1351       H  0.71618457  0.14682518  0.45919925     0.10600
C1352       C  0.62997874  0.10895421  0.52306341    -0.15300
C1353       C  0.60899070  0.09142329  0.54489554     0.03600
C1354       C  0.60897971  0.09181449  0.58460863    -0.10600
C1355       C  0.63043823  0.11019180  0.60121984    -0.00700
C1356       C  0.65123843  0.12796175  0.57921192    -0.05800
H1357       H  0.62974306  0.10822670  0.49274094     0.06600
H1358       H  0.63081477  0.11131114  0.63145970     0.10000
Br1359     Br  0.67847366  0.10352232  0.50582083    -0.05500
Br1360     Br  0.70763087  0.21953914  0.97271221    -0.02500
Br1361     Br  0.58127223  0.06710840  0.51860096     0.00400
Br1362     Br  0.67930386  0.15272075  0.60425264    -0.04000
C1363       C  0.70763025  0.16647789  0.88223678    -0.11400
C1364       C  0.70715627  0.14672038  0.86676708     0.04100
C1365       C  0.68846503  0.13186285  0.84260917    -0.11900
C1366       C  0.67028123  0.13664934  0.83323202     0.18900
C1367       C  0.67000835  0.15553670  0.85042893    -0.09000
C1368       C  0.68859019  0.17024383  0.87479948    -0.01900
H1369       H  0.68859101  0.11710415  0.83008583     0.05500
C1370       C  0.65217048  0.12237213  0.80466687     0.20900
H1371       H  0.68890761  0.18552119  0.88633128     0.10600
C1372       C  0.63289486  0.09794339  0.81439801    -0.15300
C1373       C  0.61419314  0.08471594  0.78917479     0.03600
C1374       C  0.61462954  0.09609365  0.75313504    -0.10600
C1375       C  0.63483592  0.12016498  0.74296559    -0.00700
C1376       C  0.65347653  0.13319569  0.76819278    -0.05800
H1377       H  0.63197991  0.08939928  0.84228779     0.06600
H1378       H  0.63596641  0.12921425  0.71543206     0.10000
Br1379     Br  0.64508978  0.16243797  0.84036302    -0.05500
Br1380     Br  0.73199917  0.13980179  0.87738911    -0.02500
Br1381     Br  0.58819888  0.05197520  0.80742755     0.00400
Br1382     Br  0.68027371  0.16589934  0.75172088    -0.04000
C1383       C  0.50036579  0.15434323  0.45170602    -0.11400
C1384       C  0.49388788  0.12965366  0.45236706     0.04100
C1385       C  0.50376952  0.12075536  0.47944370    -0.11900
C1386       C  0.51885485  0.13581213  0.50745310     0.18900
C1387       C  0.52553151  0.16062182  0.50635074    -0.09000
C1388       C  0.51664402  0.16978123  0.47819048    -0.01900
H1389       H  0.49823146  0.10151859  0.48041491     0.05500
C1390       C  0.52502376  0.12470663  0.54005870     0.20900
H1391       H  0.52111280  0.18862480  0.47851094     0.10600
C1392       C  0.54957058  0.13325145  0.54719118    -0.15300
C1393       C  0.55582834  0.12323241  0.57829626     0.03600
C1394       C  0.53714944  0.10396496  0.60261967    -0.10600
C1395       C  0.51270753  0.09632496  0.59606734    -0.00700
C1396       C  0.50655652  0.10637500  0.56522420    -0.05800
H1397       H  0.56391097  0.14763883  0.52820754     0.06600
H1398       H  0.49805164  0.08171429  0.61438997     0.10000
Br1399     Br  0.54399992  0.18175667  0.54538806    -0.05500
Br1400     Br  0.46904177  0.10685267  0.92081379    -0.02500
Br1401     Br  0.58998283  0.13605149  0.58437531     0.00400
Br1402     Br  0.47255161  0.09436296  0.55902868    -0.04000
C1403       C  0.50197170  0.16368129  0.86469172    -0.11400
C1404       C  0.48742166  0.14809534  0.83649361     0.04100
C1405       C  0.49493912  0.13471710  0.81779919    -0.11900
C1406       C  0.51671359  0.13610228  0.82684849     0.18900
C1407       C  0.53189374  0.15252876  0.85352354    -0.09000
C1408       C  0.52462601  0.16628900  0.87179125    -0.01900
H1409       H  0.48317115  0.12230050  0.79714132     0.05500
C1410       C  0.52303486  0.12015142  0.80815805     0.20900
H1411       H  0.53604548  0.17798428  0.89337043     0.10600
C1412       C  0.53609495  0.12884699  0.77363382    -0.15300
C1413       C  0.54146640  0.11405585  0.75418051     0.03600
C1414       C  0.53329572  0.08952576  0.76889577    -0.10600
C1415       C  0.52056233  0.08109035  0.80396449    -0.00700
C1416       C  0.51548979  0.09609897  0.82347903    -0.05800
H1417       H  0.54226356  0.14739512  0.76175304     0.06600
H1418       H  0.51432649  0.06261908  0.81627595     0.10000
Br1419     Br  0.56195973  0.15555959  0.86750492    -0.05500
Br1420     Br  0.45563794  0.14170079  0.82551245    -0.02500
Br1421     Br  0.56119285  0.12951587  0.70879044     0.00400
Br1422     Br  0.49825044  0.08285906  0.87107131    -0.04000
C1423       C  0.31097181  0.86831455  0.97904092    -0.11400
C1424       C  0.31227566  0.84730377  0.97598379     0.04100
C1425       C  0.29359714  0.82403250  0.99197849    -0.11900
C1426       C  0.27343133  0.82137819  0.51086412     0.18900
C1427       C  0.27336415  0.84275629  0.51698324    -0.09000
C1428       C  0.29177921  0.86591202  0.50043565    -0.01900
H1429       H  0.29429502  0.80787612  0.98813403     0.05500
C1430       C  0.25328380  0.79629566  0.52583795     0.20900
H1431       H  0.29040017  0.88180845  0.50282489     0.10600
C1432       C  0.25853430  0.78324273  0.55340838    -0.15300
C1433       C  0.23969009  0.76165199  0.57285195     0.03600
C1434       C  0.21499010  0.75302676  0.56544423    -0.10600
C1435       C  0.20982665  0.76424202  0.03508642    -0.00700
C1436       C  0.22885485  0.78555524  0.01484888    -0.05800
H1437       H  0.27729888  0.79057663  0.56125411     0.06600
H1438       H  0.19100247  0.75766863  0.02866780     0.10000
Br1439     Br  0.24857678  0.84139332  0.54765767    -0.05500
Br1440     Br  0.33752212  0.84870676  0.94660721    -0.02500
Br1441     Br  0.24866295  0.74559902  0.61136148     0.00400
Br1442     Br  0.22057008  0.79987281  0.97277229    -0.04000
C1443       C  0.36744874  0.91406731  0.47186095    -0.11400
C1444       C  0.36703412  0.92770709  0.50082951     0.04100
C1445       C  0.38672373  0.93929594  0.52501509    -0.11900
C1446       C  0.40753699  0.93822319  0.52078907     0.18900
C1447       C  0.40793669  0.92435790  0.49218107    -0.09000
C1448       C  0.38807161  0.91253332  0.46799036    -0.01900
H1449       H  0.38613780  0.94996090  0.54662471     0.05500
C1450       C  0.42873988  0.95260352  0.54566880     0.20900
H1451       H  0.38897754  0.90266232  0.44542288     0.10600
C1452       C  0.43497183  0.94016991  0.57310984    -0.15300
C1453       C  0.45383275  0.95327639  0.59842701     0.03600
C1454       C  0.46701816  0.97952219  0.59674092    -0.10600
C1455       C  0.46053301  0.99181739  0.56930722    -0.00700
C1456       C  0.44179434  0.97872522  0.54404211    -0.05800
H1457       H  0.42481925  0.92009559  0.57526143     0.06600
H1458       H  0.47053308  0.01188685  0.56672829     0.10000
Br1459     Br  0.43576206  0.92230080  0.48354542    -0.05500
Br1460     Br  0.34125334  0.93345075  0.50643882    -0.02500
Br1461     Br  0.45967895  0.93408319  0.63586041     0.00400
Br1462     Br  0.43535252  0.99754387  0.50673122    -0.04000
C1463       C  0.46977927  0.98427928  0.74380883    -0.11400
C1464       C  0.45512312  0.99373627  0.75125455     0.04100
C1465       C  0.43644906  0.98157297  0.77905729    -0.11900
C1466       C  0.43200728  0.96011602  0.80006417     0.18900
C1467       C  0.44564846  0.94990384  0.79129529    -0.09000
C1468       C  0.46422357  0.96190742  0.76335688    -0.01900
H1469       H  0.42545959  0.98906737  0.78465233     0.05500
C1470       C  0.41249987  0.94823195  0.83000638     0.20900
H1471       H  0.47521031  0.95432203  0.75839446     0.10600
C1472       C  0.39213897  0.92437805  0.82586001    -0.15300
C1473       C  0.37284115  0.91284500  0.85243017     0.08400
C1474       C  0.37336559  0.92541926  0.88363732    -0.10600
C1475       C  0.39393777  0.94906917  0.88842637    -0.00700
C1476       C  0.41349185  0.96051440  0.86190955    -0.05800
H1477       H  0.39113304  0.91475772  0.80152591     0.06600
H1478       H  0.39451411  0.95888159  0.91223736     0.10000
Br1479     Br  0.44089998  0.92059331  0.81845349    -0.05500
Br1480     Br  0.45929354  0.02298926  0.72461259    -0.02500
Br1481     Br  0.34624226  0.87973980  0.84453535     0.00400
Br1482     Br  0.44115249  0.99279613  0.87058545    -0.04000
C1483       C  0.59242430  0.75769776  0.93148209    -0.11400
C1484       C  0.60933440  0.78258071  0.93915288     0.04100
C1485       C  0.60147177  0.79887541  0.94185431    -0.11900
C1486       C  0.57669744  0.79060968  0.93820787     0.18900
C1487       C  0.55945921  0.76501421  0.93593156    -0.09000
C1488       C  0.56738421  0.74882098  0.93242715    -0.01900
H1489       H  0.61492191  0.81832534  0.94474309     0.05500
C1490       C  0.56945556  0.80902546  0.93305617     0.20900
H1491       H  0.55404506  0.72976941  0.92701973     0.10600
C1492       C  0.55887243  0.81074062  0.89907222    -0.15300
C1493       C  0.55009179  0.82643732  0.89399281     0.03600
C1494       C  0.55262014  0.84152705  0.92253525    -0.10600
C1495       C  0.56464215  0.84098593  0.45560530    -0.00700
C1496       C  0.57274319  0.82475234  0.96117697    -0.05800
H1497       H  0.55654211  0.79904378  0.87693532     0.06600
H1498       H  0.56590738  0.85180141  0.47845046     0.10000
Br1499     Br  0.52494517  0.75151315  0.93569688    -0.05500
Br1500     Br  0.64362747  0.79553042  0.94362690    -0.02500
Br1501     Br  0.53313410  0.82533493  0.84891967     0.00400
Br1502     Br  0.58542344  0.82258526  0.50942704    -0.04000
C1503       C  0.54019775  0.90271983  0.46475736    -0.11400
C1504       C  0.54567367  0.90540176  0.50332465     0.04100
C1505       C  0.55123250  0.92697033  0.51917579    -0.11900
C1506       C  0.55229777  0.94648047  0.49702153     0.18900
C1507       C  0.54888096  0.94476147  0.45800960    -0.09000
C1508       C  0.54178938  0.92255664  0.44248760    -0.01900
H1509       H  0.55410528  0.92826576  0.54920845     0.05500
C1510       C  0.55367443  0.96667852  0.51627048     0.20900
H1511       H  0.53729954  0.92074364  0.91305251     0.10600
C1512       C  0.57408233  0.98171945  0.53782591    -0.15300
C1513       C  0.57367014  0.99764868  0.56211604     0.03600
C1514       C  0.55265149  0.99870104  0.56464783    -0.10600
C1515       C  0.53295715  0.98477487  0.54133681    -0.00700
C1516       C  0.53309357  0.96852352  0.51790655    -0.05800
H1517       H  0.58992576  0.98029422  0.53687364     0.06600
H1518       H  0.51646800  0.98501431  0.54351066     0.10000
Br1519     Br  0.55419467  0.97250694  0.42534597    -0.05500
Br1520     Br  0.54601642  0.88037496  0.53593270    -0.02500
Br1521     Br  0.60197143  0.01735543  0.59125199     0.00400
Br1522     Br  0.50327377  0.94687041  0.49303616    -0.04000
C1523       C  0.55380773  0.89250609  0.88743969    -0.11400
C1524       C  0.57406418  0.91723741  0.88545989     0.04100
C1525       C  0.57496957  0.93498726  0.85852824    -0.11900
C1526       C  0.55604612  0.92828312  0.83283742     0.18900
C1527       C  0.53781421  0.90294143  0.83136099    -0.09000
C1528       C  0.53669503  0.88540306  0.85861645    -0.01900
H1529       H  0.58960068  0.95428427  0.85928396     0.05500
C1530       C  0.55472500  0.94790065  0.80961831     0.20900
H1531       H  0.52109894  0.86646932  0.85935271     0.10600
C1532       C  0.57150250  0.96144454  0.77953403    -0.15300
C1533       C  0.57046140  0.97966452  0.75666616     0.03600
C1534       C  0.55288297  0.98551598  0.76457725    -0.10600
C1535       C  0.53638528  0.97216677  0.79525830    -0.00700
C1536       C  0.53684886  0.95327829  0.81709936    -0.05800
H1537       H  0.58517928  0.95740273  0.77322964     0.06600
H1538       H  0.52230812  0.97568275  0.80138816     0.10000
Br1539     Br  0.51323859  0.89158486  0.79388732    -0.05500
Br1540     Br  0.59893746  0.92788958  0.42218515    -0.02500
Br1541     Br  0.59366832  0.99557487  0.71504935     0.00400
Br1542     Br  0.51194129  0.93479540  0.85590543    -0.04000
loop_ 
_geom_bond_atom_site_label_1 
_geom_bond_atom_site_label_2 
_geom_bond_distance 
_geom_bond_site_symmetry_2 
_ccdc_geom_bond_type 
N1            C2   1.365       .  A
N1          C776   1.361       .  A
N1          C752   1.449       .  S
C2          C723   1.484       .  S
C2          C774   1.385       .  A
C3            C4   1.366       .  A
C3          C773   1.385       .  A
C3            H6   1.083       .  S
C4            C5   1.377       .  A
C4            H7   1.082       .  S
C5          N772   1.361       .  A
C5          C732   1.482       .  S
N8           C12   1.360       .  A
N8            C9   1.362       .  A
N8         C1443   1.450       .  S
C9          C652   1.479       .  S
C9           C10   1.381       .  A
C10          C11   1.368       .  A
C10          H13   1.083       .  S
C11          C12   1.382       .  A
C11          H14   1.082       .  S
C12         C703   1.478       .  S
O15          C23   1.271       .  A
O15         Co35   2.035       .  S
O16          C24   1.280       .  A
O16         Co36   2.041       .  S
O17          C25   1.266       .  A
O17         Co37   1.974   1_545  S
O18          C26   1.269       .  A
O18         Co38   1.894       .  S
O19          C25   1.271       .  A
O19         Co36   2.001       .  S
O20          C26   1.296       .  A
O20         Co35   2.102       .  S
O21          C24   1.271       .  A
O21         Co38   1.975       .  S
O22          C23   1.257       .  A
O22         Co37   1.974   1_545  S
C23         C763   1.500   1_545  S
C24         C583   1.495       .  S
C25         C743   1.470   1_545  S
C26         C603   1.492       .  S
O27          C40   1.269       .  A
O27         Co35   1.920       .  S
O28          C41   1.264   1_545  A
O28         Co36   1.977       .  S
O29          C42   1.282       .  A
O29         Co37   2.038       .  S
O30          C43   1.264       .  A
O30         Co38   2.023       .  S
O31          C43   1.252       .  A
O31         Co36   1.954       .  S
O32          C42   1.265   1_545  A
O32         Co35   1.957       .  S
O33          C40   1.293       .  A
O33         Co38   2.102       .  S
O34          C41   1.272       .  A
O34         Co37   2.032       .  S
Co35         O39   2.018       .  S
Co36         O39   2.019       .  S
Co37         O39   2.036   1_565  S
Co38         O39   2.026       .  S
C40         C643   1.502       .  S
C41         C683   1.501       .  S
C42         C692   1.485       .  S
C43         C623   1.481       .  S
N44          C48   1.362       .  A
N44          C45   1.368       .  A
N44         C632   1.454       .  S
C45         C552   1.490       .  S
C45          C46   1.389       .  A
C46         C818   1.362       .  A
C46          H49   1.082       .  S
C47         C817   1.362       .  A
C47         C819   1.374       .  A
C47          H50   1.082       .  S
C48        C1383   1.472       .  S
C48         C818   1.375       .  A
N51          C55   1.360       .  A
N51          C52   1.365       .  A
N51        C1343   1.447       .  S
C52         C543   1.486       .  S
C52          C53   1.386       .  A
C53          C54   1.369       .  A
C53          H56   1.082       .  S
C54          C55   1.378       .  A
C54          H57   1.082       .  S
C55         C592   1.477       .  S
O58          C66   1.263       .  A
O58         Co78   2.009       .  S
O59          C67   1.266       .  A
O59         Co79   1.894       .  S
O60          C68   1.270       .  A
O60         Co80   2.027       .  S
O61          C69   1.296       .  A
O61         Co81   2.056   1_455  S
O62          C68   1.253       .  A
O62         Co79   1.970       .  S
O63          C69   1.281       .  A
O63         Co78   1.920       .  S
O64          C67   1.302   1_655  A
O64         Co81   2.101       .  S
O65          C66   1.261       .  A
O65         Co80   2.002       .  S
C66         C512   1.494       .  S
C67         C372   1.497   1_455  S
C68         C503   1.475       .  S
C69         C392   1.488   1_455  S
O70          C83   1.249   1_455  A
O70         Co78   1.968       .  S
O71          C84   1.265       .  A
O71         Co79   2.016       .  S
O72          C85   1.264       .  A
O72         Co80   1.963       .  S
O73          C86   1.257       .  A
O73         Co81   2.012       .  S
O74          C86   1.246   1_455  A
O74         Co79   1.964       .  S
O75          C85   1.283       .  A
O75         Co78   2.047       .  S
O76          C83   1.254       .  A
O76         Co81   2.000       .  S
O77          C84   1.256       .  A
O77         Co80   1.970       .  S
Co78         O82   1.957       .  S
Co79         O82   1.918       .  S
Co80         O82   2.083       .  S
Co81         O82   2.257   1_655  S
C83         C432   1.489       .  S
C84         C463   1.484       .  S
C85         C472   1.496       .  S
C86         C412   1.475       .  S
N87          C91   1.357       .  A
N87          C88   1.366       .  A
N87         C483   1.444       .  S
C88         C352   1.488       .  S
C88          C89   1.386       .  A
C89          C90   1.371       .  A
C89          H92   1.082       .  S
C90          C91   1.377       .  A
C90          H93   1.082       .  S
C91         C452   1.477       .  S
N94          C98   1.359       .  A
N94          C95   1.359       .  A
N94         C443   1.443       .  S
C95         C532   1.479       .  S
C95          C96   1.380       .  A
C96          C97   1.373       .  A
C96          H99   1.082       .  S
C97          C98   1.382       .  A
C97         H100   1.082       .  S
C98         C423   1.480       .  S
N101        C105   1.361       .  A
N101        C102   1.364       .  A
N101       C1174   1.439       .  S
C102        C332   1.490       .  S
C102        C103   1.384       .  A
C103        C104   1.373       .  A
C103        H106   1.082       .  S
C104        C105   1.378       .  A
C104        H107   1.082       .  S
C105        C383   1.485       .  S
N108        C112   1.363       .  A
N108        C109   1.365       .  A
N108       C1294   1.452       .  S
C109        C663   1.479       .  S
C109        C110   1.384       .  A
C110        C111   1.363       .  A
C110        H113   1.083       .  S
C111        C112   1.379       .  A
C111        H114   1.083       .  S
C112        C492   1.476       .  S
O115        C123   1.268       .  A
O115       Co135   1.969       .  S
O116        C124   1.258       .  A
O116       Co136   1.972       .  S
O117        C125   1.272       .  A
O117       Co137   2.026       .  S
O118        C126   1.300       .  A
O118       Co138   2.122       .  S
O119        C125   1.263       .  A
O119       Co136   1.969       .  S
O120        C126   1.265       .  A
O120       Co135   1.900       .  S
O121        C124   1.268       .  A
O121       Co138   2.012       .  S
O122        C123   1.282       .  A
O122       Co137   2.031       .  S
C123        C312   1.490       .  S
C124        C183   1.493       .  S
C125        C292   1.482       .  S
C126        C192   1.504       .  S
O127        C140   1.298       .  A
O127       Co135   2.111       .  S
O128        C141   1.272       .  A
O128       Co136   2.027       .  S
O129        C142   1.255       .  A
O129       Co137   1.967       .  S
O130        C143   1.272       .  A
O130       Co138   1.986       .  S
O131        C143   1.275       .  A
O131       Co136   2.011       .  S
O132        C142   1.266       .  A
O132       Co135   2.035       .  S
O133        C140   1.268       .  A
O133       Co138   1.898       .  S
O134        C141   1.264       .  A
O134       Co137   1.968       .  S
Co135       O139   2.027       .  S
Co136       O139   2.040       .  S
Co137       O139   2.031       .  S
Co138       O139   2.018       .  S
C140        C232   1.498       .  S
C141        C252   1.488       .  S
C142        C283   1.504       .  S
C143        C212   1.491       .  S
N144        C148   1.364       .  A
N144        C145   1.361       .  A
N144        C303   1.441       .  S
C145        C563   1.487       .  S
C145        C146   1.384       .  A
C146        C147   1.368       .  A
C146        H149   1.082       .  S
C147        C148   1.380       .  A
C147        H921   1.082       .  S
C148        C323   1.484       .  S
H150        C918   1.082   1_554  S
N151        C155   1.365       .  A
N151        C152   1.366       .  A
N151        C203   1.450       .  S
C152        C363   1.483       .  S
C152        C153   1.383       .  A
C153        C154   1.367       .  A
C153        H156   1.083       .  S
C154        C155   1.379       .  A
C154        H157   1.082       .  S
C155        C172   1.481       .  S
N158        C162   1.356       .  A
N158        C159   1.367       .  A
N158        C272   1.444       .  S
C159        C343   1.490       .  S
C159        C160   1.385       .  A
C160        C161   1.373       .  A
C160        H163   1.082       .  S
C161        C162   1.377       .  A
C161        H164   1.082       .  S
C162        C263   1.477       .  S
N165        C169   1.360       .  A
N165        C166   1.364       .  A
N165        C243   1.445       .  S
C166        C712   1.487       .  S
C166        C167   1.386       .  A
C167        C168   1.368       .  A
C167        H170   1.082       .  S
C168        C169   1.378       .  A
C168        H171   1.082       .  S
C169        C223   1.479       .  S
C172        C173   1.409       .  A
C172        C177   1.403       .  A
C173        C174   1.402       .  A
C173       Br189   1.917       .  S
C174        C175   1.407       .  A
C174        H178   1.083       .  S
C175        C179   1.490       .  S
C175        C176   1.411       .  A
C176        C177   1.398       .  A
C176       Br188   1.921       .  S
C177        H180   1.084       .  S
C179        C181   1.402       .  A
C179        C185   1.411       .  A
C181        C182   1.400       .  A
C181        H186   1.084       .  S
C182        C183   1.420       .  A
C182       Br190   1.920       .  S
C183        C184   1.407       .  A
C184        C185   1.400       .  A
C184        H187   1.083       .  S
C185       Br191   1.920       .  S
C192        C193   1.422       .  A
C192        C197   1.411       .  A
C193        C194   1.406       .  A
C193       Br209   1.923       .  S
C194        C195   1.402       .  A
C194        H198   1.084   1_554  S
C195        C199   1.496       .  S
C195        C196   1.409       .  A
C196        C197   1.409       .  A
C196       Br208   1.917       .  S
C197        H200   1.083       .  S
C199        C205   1.412       .  A
C199        C972   1.404   1_554  A
C201        C202   1.406       .  A
C201        C970   1.404       .  A
C201        H206   1.083       .  S
C202        C203   1.413       .  A
C202       Br210   1.917       .  S
C203        C975   1.404       .  A
C204        C205   1.408   1_556  A
C204        C974   1.404       .  A
C204        H207   1.083       .  S
C205       Br211   1.917       .  S
C212        C213   1.415       .  A
C212        C217   1.412       .  A
C213        C214   1.403       .  A
C213       Br229   1.920       .  S
C214        C215   1.404       .  A
C214        H218   1.084       .  S
C215        C219   1.480       .  S
C215        C216   1.404       .  A
C216        C217   1.398       .  A
C216       Br228   1.920       .  S
C217        H220   1.083       .  S
C219        C221   1.399       .  A
C219        C225   1.411       .  A
C221        C222   1.394       .  A
C221        H226   1.084       .  S
C222        C223   1.411       .  A
C222       Br230   1.922       .  S
C223        C224   1.404       .  A
C224        C225   1.406       .  A
C224        H227   1.083       .  S
C225       Br231   1.917       .  S
C232        C233   1.417       .  A
C232        C237   1.411       .  A
C233        C234   1.404       .  A
C233       Br249   1.919       .  S
C234        C235   1.404       .  A
C234        H238   1.084       .  S
C235        C239   1.492       .  S
C235        C236   1.407       .  A
C236        C237   1.403       .  A
C236       Br248   1.919       .  S
C237        H240   1.083       .  S
C239        C245   1.410       .  A
C239       C1012   1.407   1_554  A
C241        C242   1.405       .  A
C241       C1010   1.407       .  A
C241        H246   1.083       .  S
C242        C243   1.409       .  A
C242       Br250   1.914       .  S
C243       C1015   1.403       .  A
C244        C245   1.401   1_556  A
C244       C1014   1.403       .  A
C244        H247   1.083       .  S
C245       Br251   1.919       .  S
C252        C253   1.416       .  A
C252        C257   1.406       .  A
C253        C254   1.405       .  A
C253       Br269   1.919       .  S
C254        C255   1.403       .  A
C254        H258   1.083       .  S
C255        C259   1.484       .  S
C255        C256   1.408       .  A
C256        C257   1.396       .  A
C256       Br268   1.921       .  S
C257        H260   1.083       .  S
C259        C261   1.404       .  A
C259        C265   1.410       .  A
C261        C262   1.399       .  A
C261        H266   1.083       .  S
C262        C263   1.407       .  A
C262       Br270   1.919       .  S
C263        C264   1.402       .  A
C264        C265   1.402       .  A
C264        H267   1.083       .  S
C265       Br271   1.918       .  S
C272        C273   1.410       .  A
C272       C1048   1.406       .  A
C273       C1045   1.400       .  A
C273       Br289   1.914       .  S
C274        C275   1.403       .  A
C274       C1044   1.400   1_554  A
C274        H278   1.084       .  S
C275        C279   1.496       .  S
C275        C276   1.413       .  A
C276        C277   1.409   1_554  A
C276       Br288   1.917       .  S
C277       C1043   1.406       .  A
C277        H280   1.083       .  S
C279        C281   1.408       .  A
C279        C285   1.407       .  A
C281        C282   1.411       .  A
C281        H286   1.083   1_554  S
C282        C283   1.418       .  A
C282       Br290   1.920       .  S
C283        C284   1.412       .  A
C284        C285   1.400       .  A
C284        H287   1.083       .  S
C285       Br291   1.920       .  S
C292        C293   1.413       .  A
C292        C297   1.405       .  A
C293        C294   1.397       .  A
C293       Br309   1.918       .  S
C294        C295   1.401       .  A
C294        H298   1.084       .  S
C295        C299   1.489       .  S
C295        C296   1.413       .  A
C296        C297   1.407       .  A
C296       Br308   1.918       .  S
C297        H300   1.084       .  S
C299        C301   1.405       .  A
C299        C305   1.413       .  A
C301        C302   1.399       .  A
C301        H306   1.083       .  S
C302        C303   1.406       .  A
C302       Br310   1.916       .  S
C303        C304   1.402       .  A
C304        C305   1.404       .  A
C304        H307   1.082       .  S
C305       Br311   1.919       .  S
C312        C313   1.420       .  A
C312        C317   1.407       .  A
C313        C314   1.401       .  A
C313       Br329   1.919       .  S
C314        C315   1.400       .  A
C314        H318   1.084       .  S
C315        C319   1.484       .  S
C315        C316   1.408       .  A
C316        C317   1.399       .  A
C316       Br328   1.919       .  S
C317        H320   1.084       .  S
C319        C321   1.403       .  A
C319        C325   1.407       .  A
C321        C322   1.401   1_554  A
C321        H326   1.084       .  S
C322       C1094   1.411       .  A
C322       Br330   1.914       .  S
C323        C324   1.407       .  A
C323       C1093   1.411       .  A
C324       C1096   1.400       .  A
C324        H327   1.084       .  S
C325       C1095   1.400       .  A
C325       Br331   1.919       .  S
C332        C337   1.404       .  A
C332       C1104   1.412       .  A
C333        C334   1.403       .  A
C333       C1103   1.412       .  A
C333       Br349   1.919       .  S
C334        C335   1.404       .  A
C334        H338   1.083       .  S
C335        C339   1.506       .  S
C335       C1107   1.419       .  A
C336        C337   1.411       .  A
C336       C1106   1.419       .  A
C336       Br348   1.920   1_554  S
C337        H340   1.083       .  S
C339        C345   1.416       .  A
C339       C1112   1.406       .  A
C341       C1110   1.406       .  A
C341       C1113   1.404   1_554  A
C341        H346   1.083       .  S
C342        C343   1.412       .  A
C342       C1112   1.404       .  A
C342      Br1121   1.916       .  S
C343        C344   1.406       .  A
C344        C345   1.409       .  A
C344        H347   1.084       .  S
C345       Br351   1.919       .  S
Br350      C1113   1.916       .  S
C352        C353   1.409       .  A
C352       C1128   1.407       .  A
C353        C354   1.408       .  A
C353       Br369   1.915       .  S
C354        C355   1.410       .  A
C354        H358   1.083       .  S
C355       C1130   1.501       .  S
C355       C1127   1.412       .  A
C356        C357   1.401       .  A
C356       C1126   1.412       .  A
C356       Br368   1.921       .  S
C357       C1123   1.407       .  A
C357        H360   1.084       .  S
C359       C1126   1.501       .  S
C359        C361   1.404       .  A
C359       C1136   1.418       .  A
C361        C362   1.400       .  A
C361        H366   1.083       .  S
C362        C363   1.411       .  A
C362       Br370   1.920       .  S
C363       C1135   1.402       .  A
C364        C365   1.408   1_556  A
C364       C1134   1.402       .  A
C364        H367   1.083       .  S
C365       C1130   1.418       .  A
C365       Br371   1.919       .  S
C372        C373   1.415       .  A
C372        C377   1.412       .  A
C373        C374   1.406       .  A
C373       Br389   1.919       .  S
C374        C375   1.405       .  A
C374        H378   1.083       .  S
C375        C379   1.488       .  S
C375        C376   1.406       .  A
C376        C377   1.400       .  A
C376       Br388   1.919       .  S
C377        H380   1.083       .  S
C379        C381   1.405       .  A
C379        C385   1.411       .  A
C381        C382   1.405       .  A
C381        H386   1.083       .  S
C382        C383   1.409       .  A
C382       Br390   1.917       .  S
C383        C384   1.402       .  A
C384        C385   1.401       .  A
C384        H387   1.081       .  S
C385       Br391   1.920       .  S
C392        C393   1.418       .  A
C392        C397   1.405       .  A
C393        C394   1.402       .  A
C393       Br409   1.922       .  S
C394        C395   1.400       .  A
C394        H398   1.084       .  S
C395        C399   1.487       .  S
C395        C396   1.412       .  A
C396        C397   1.404       .  A
C396       Br408   1.920       .  S
C397        H400   1.083   1_655  S
C399        C401   1.405       .  A
C399        C405   1.409       .  A
C401       C1173   1.404       .  A
C401        H406   1.083       .  S
C402       C1172   1.404       .  A
C402       C1174   1.407       .  A
C402       Br410   1.913       .  S
C403        N872   1.439       .  S
C403        C404   1.403       .  A
C403       C1173   1.407       .  A
C404        C405   1.402       .  A
C404        H407   1.083       .  S
C405       Br411   1.918       .  S
C412        C413   1.412       .  A
C412        C417   1.403       .  A
C413        C414   1.397       .  A
C413       Br429   1.919       .  S
C414        C415   1.401       .  A
C414        H418   1.084       .  S
C415        C419   1.482       .  S
C415        C416   1.410       .  A
C416        C417   1.403       .  A
C416       Br428   1.918       .  S
C417        H420   1.084       .  S
C419        C421   1.406       .  A
C419        C425   1.407       .  A
C421        C422   1.403       .  A
C421        H426   1.083       .  S
C422        C423   1.408       .  A
C422       Br430   1.916       .  S
C423        C424   1.404       .  A
C424        C425   1.396       .  A
C424        H427   1.084       .  S
C425       Br431   1.920       .  S
C432        C433   1.417       .  A
C432        C437   1.408       .  A
C433        C434   1.403       .  A
C433       Br449   1.921       .  S
C434        C435   1.402       .  A
C434        H438   1.083       .  S
C435        C439   1.482       .  S
C435        C436   1.406       .  A
C436        C437   1.399       .  A
C436       Br448   1.919       .  S
C437        H440   1.083   1_655  S
C439        C441   1.400       .  A
C439        C445   1.409       .  A
C441       C1213   1.399       .  A
C441        H446   1.084       .  S
C442        C443   1.411       .  A
C442       C1212   1.399       .  A
C442       Br450   1.916       .  S
C443        C444   1.404       .  A
C444       C1216   1.404       .  A
C444        H447   1.083       .  S
C445       C1215   1.403       .  A
C445       Br451   1.917       .  S
C452        C453   1.407       .  A
C452        C457   1.402       .  A
C453        C454   1.398       .  A
C453       Br469   1.918       .  S
C454        C455   1.403       .  A
C454        H458   1.084       .  S
C455        C459   1.477       .  S
C455        C456   1.409       .  A
C456        C457   1.399       .  A
C456       Br468   1.918       .  S
C457        H460   1.083       .  S
C459        C461   1.399       .  A
C459        C465   1.406       .  A
C461        C462   1.396       .  A
C461        H466   1.084       .  S
C462        C463   1.418       .  A
C462       Br470   1.924       .  S
C463        C464   1.408       .  A
C464        C465   1.402       .  A
C464        H467   1.083       .  S
C465       Br471   1.917       .  S
C472        C473   1.421       .  A
C472        C477   1.408       .  A
C473        C474   1.399       .  A
C473       Br489   1.924       .  S
C474        C475   1.400       .  A
C474        H478   1.084       .  S
C475        C479   1.495       .  S
C475        C476   1.413       .  A
C476        C477   1.408       .  A
C476       Br488   1.917       .  S
C477        H480   1.083       .  S
C479        C481   1.409       .  A
C479        C485   1.410       .  A
C481        C482   1.408       .  A
C481        H486   1.083       .  S
C482       C1254   1.407       .  A
C482       Br490   1.914       .  S
C483       C1253   1.407       .  A
C483       C1255   1.405       .  A
C484        C485   1.398       .  A
C484       C1254   1.405       .  A
C484       H1258   1.083       .  S
C485       Br491   1.920       .  S
H487       C1255   1.083       .  S
C492        C493   1.410       .  A
C492        C497   1.406       .  A
C493        C494   1.398       .  A
C493       Br509   1.916       .  S
C494        C495   1.401       .  A
C494        H498   1.084       .  S
C495        C499   1.468       .  S
C495        C496   1.403       .  A
C496        C497   1.394       .  A
C496       Br508   1.919       .  S
C497        H500   1.084       .  S
C499        C501   1.404       .  A
C499        C505   1.400       .  A
C501        C502   1.397       .  A
C501        H506   1.082       .  S
C502        C503   1.406       .  A
C502       Br510   1.918       .  S
C503        C504   1.410       .  A
C504        C505   1.395       .  A
C504        H507   1.071       .  S
C505       Br511   1.920       .  S
C512        C513   1.409       .  A
C512        C517   1.408       .  A
C513        C514   1.411       .  A
C513       Br529   1.916       .  S
C514        C515   1.412       .  A
C514        H518   1.083       .  S
C515        C519   1.502       .  S
C515        C516   1.413       .  A
C516        C517   1.402       .  A
C516       Br528   1.922       .  S
C517        H520   1.084       .  S
C519        C521   1.404       .  A
C519        C525   1.417       .  A
C521        C522   1.402       .  A
C521        H526   1.083       .  S
C522        C523   1.412       .  A
C522      Br1301   1.917       .  S
C523        N879   1.452       .  S
C523        C524   1.405       .  A
C524        C525   1.408       .  A
C524        H527   1.082       .  S
C525       Br531   1.919       .  S
Br530      C1293   1.917       .  S
C532        C533   1.410       .  A
C532        C537   1.402       .  A
C533        C534   1.403       .  A
C533       Br549   1.918       .  S
C534        C535   1.404       .  A
C534        H538   1.083       .  S
C535        C539   1.486       .  S
C535       C1307   1.410       .  A
C536       C1306   1.410       .  A
C536       C1308   1.399       .  A
C536       Br548   1.920       .  S
C537       C1307   1.399       .  A
C537       H1311   1.083       .  S
C539        C545   1.413       .  A
C539       C1312   1.398   1_554  A
H540       C1308   1.083       .  S
C541        C542   1.398       .  A
C541       C1310   1.398       .  A
C541        H546   1.084       .  S
C542        C543   1.416       .  A
C542       Br550   1.922       .  S
C543       C1315   1.403       .  A
C544        C545   1.405       .  A
C544       C1314   1.403   1_554  A
C544        H547   1.083       .  S
C545       Br551   1.918       .  S
C552        C553   1.413       .  A
C552        C557   1.404       .  A
C553        C554   1.400       .  A
C553       Br569   1.921       .  S
C554        C555   1.406       .  A
C554        H558   1.081       .  S
C555        C559   1.505       .  S
C555        C556   1.418       .  A
C556        C557   1.408       .  A
C556       Br568   1.920       .  S
C557        H560   1.083       .  S
C559        C561   1.406       .  A
C559        C565   1.420       .  A
C561        C562   1.393       .  A
C561        H566   1.082       .  S
C562        C563   1.409       .  A
C562      Br1341   1.923       .  S
C563        C564   1.405       .  A
C564        C565   1.411       .  A
C564        H567   1.083       .  S
C565       Br571   1.919       .  S
Br570      C1333   1.923       .  S
C572        N822   1.447       .  S
C572        C573   1.409       .  A
C572        C577   1.405       .  A
C573        C574   1.409   1_556  A
C573      Br1360   1.914       .  S
C574        C575   1.408       .  A
C574        H578   1.083       .  S
C575        C579   1.493       .  S
C575        C576   1.408   1_554  A
C576        C577   1.400       .  A
C576       Br588   1.918   1_556  S
C577        H580   1.083       .  S
C579        C581   1.405       .  A
C579        C585   1.408       .  A
C581        C582   1.405       .  A
C581        H586   1.084   1_554  S
C582        C583   1.416       .  A
C582       Br590   1.920       .  S
C583        C584   1.410       .  A
C584        C585   1.405       .  A
C584        H587   1.083       .  S
C585       Br591   1.918       .  S
Br589      C1344   1.915       .  S
C592        C593   1.408       .  A
C592        C597   1.401       .  A
C593        C594   1.401       .  A
C593       Br609   1.918       .  S
C594        C595   1.403       .  A
C594        H598   1.083       .  S
C595        C599   1.482       .  S
C595        C596   1.410       .  A
C596        C597   1.400       .  A
C596       Br608   1.919       .  S
C597        H600   1.084       .  S
C599        C601   1.400       .  A
C599        C605   1.407       .  A
C601        C602   1.403       .  A
C601        H606   1.084       .  S
C602        C603   1.420       .  A
C602       Br610   1.921       .  S
C603        C604   1.408       .  A
C604        C605   1.399       .  A
C604        H607   1.083       .  S
C605       Br611   1.919       .  S
C612        C819   1.472       .  S
C612        C613   1.404       .  A
C612        C617   1.403       .  A
C613        C614   1.400       .  A
C613      Br1400   1.916       .  S
C614        C615   1.408   1_556  A
C614        H618   1.083       .  S
C615        C619   1.478       .  S
C615        C616   1.407       .  A
C616        C617   1.394   1_554  A
C616       Br628   1.920       .  S
C617        H620   1.084       .  S
C619        C621   1.404       .  A
C619        C625   1.406       .  A
C621        C622   1.402       .  A
C621        H626   1.084       .  S
C622        C623   1.415       .  A
C622       Br630   1.920       .  S
C623        C624   1.407       .  A
C624        C625   1.393       .  A
C624        H627   1.084       .  S
C625       Br631   1.922       .  S
Br629      C1384   1.916       .  S
C632        C633   1.415       .  A
C632        C637   1.409       .  A
C633        C634   1.406       .  A
C633       Br649   1.915       .  S
C634        C635   1.402       .  A
C634        H638   1.083       .  S
C635        C639   1.495       .  S
C635        C636   1.409       .  A
C636        C637   1.407       .  A
C636       Br648   1.917       .  S
C637        H640   1.083       .  S
C639        C641   1.400       .  A
C639        C645   1.411       .  A
C641        C642   1.405       .  A
C641        H646   1.083       .  S
C642        C643   1.422       .  A
C642       Br650   1.920       .  S
C643        C644   1.408       .  A
C644        C645   1.406       .  A
C644        H647   1.083       .  S
C645       Br651   1.914       .  S
C652        C653   1.412       .  A
C652       C1428   1.403       .  A
C653        C654   1.402       .  A
C653       Br669   1.918       .  S
C654       C1426   1.403       .  A
C654        H658   1.083       .  S
C655        C659   1.486       .  S
C655        C656   1.411       .  A
C655       C1425   1.403   1_554  A
C656        C657   1.399       .  A
C656       Br668   1.920       .  S
C657       C1423   1.403   1_554  A
C657        H660   1.083       .  S
C659        C661   1.399       .  A
C659       C1436   1.414       .  A
C661        C662   1.396       .  A
C661        H666   1.084       .  S
C662        C663   1.414       .  A
C662       Br670   1.922       .  S
C663       C1435   1.401       .  A
C664        C665   1.404       .  A
C664       C1434   1.401       .  A
C664        H667   1.083       .  S
C665       C1430   1.414       .  A
C665       Br671   1.918       .  S
C672        N779   1.450       .  S
C672        C673   1.414   1_556  A
C672        C677   1.406       .  A
C673        C674   1.401       .  A
C673       Br689   1.917       .  S
C674        C675   1.402       .  A
C674        H678   1.084       .  S
C675        C679   1.498       .  S
C675        C676   1.414   1_554  A
C676        C677   1.410       .  A
C676       Br688   1.915       .  S
C677        H680   1.083       .  S
C679        C681   1.405       .  A
C679        C685   1.411       .  A
C681        C682   1.409       .  A
C681        H686   1.083       .  S
C682        C683   1.417       .  A
C682       Br690   1.919       .  S
C683        C684   1.409       .  A
C684        C685   1.404       .  A
C684        H687   1.083   1_565  S
C685       Br691   1.920       .  S
C692        C693   1.417       .  A
C692        C697   1.406       .  A
C693        C694   1.400       .  A
C693       Br709   1.923   1_565  S
C694        C695   1.402       .  A
C694        H698   1.084       .  S
C695        C699   1.483       .  S
C695        C696   1.409       .  A
C696        C697   1.399       .  A
C696       Br708   1.920       .  S
C697        H700   1.083       .  S
C699        C701   1.399       .  A
C699        C705   1.414       .  A
C701        C702   1.394       .  A
C701        H706   1.084       .  S
C702        C703   1.413       .  A
C702       Br710   1.922       .  S
C703        C704   1.401       .  A
C704        C705   1.404       .  A
C704        H707   1.083       .  S
C705       Br711   1.918       .  S
C712        C713   1.414       .  A
C712        C717   1.403       .  A
C713        C714   1.402       .  A
C713       Br729   1.920       .  S
C714        C715   1.403       .  A
C714        H718   1.083       .  S
C715        C719   1.492       .  S
C715        C716   1.412       .  A
C716        C717   1.403       .  A
C716       Br728   1.918       .  S
C717        H720   1.082       .  S
C719        C721   1.408       .  A
C719        C725   1.409       .  A
C721        C722   1.404       .  A
C721        H726   1.083       .  S
C722        C723   1.405       .  A
C722       Br730   1.915       .  S
C723       C1495   1.409       .  A
C724       C1494   1.409       .  A
C724       C1496   1.403       .  A
C724        H727   1.084       .  S
C725       C1495   1.403       .  A
C725      Br1502   1.919       .  S
Br731      C1496   1.919   1_554  S
C732        C733   1.412   1_556  A
C732        C737   1.404       .  A
C733        C734   1.395       .  A
C733       Br749   1.921       .  S
C734        C735   1.399   1_554  A
C734        H738   1.084       .  S
C735        C739   1.475   1_556  S
C735        C736   1.406       .  A
C736        C737   1.399       .  A
C736       Br748   1.920       .  S
C737       H1511   1.079       .  S
C739        C741   1.405       .  A
C739        C745   1.408       .  A
H740       C1508   1.079       .  S
C741        C742   1.402       .  A
C741        H746   1.083       .  S
C742        C743   1.409       .  A
C742       Br750   1.918   1_565  S
C743        C744   1.402       .  A
C744        C745   1.390       .  A
C744        H747   1.084       .  S
C745       Br751   1.921   1_554  S
C752        C753   1.410       .  A
C752        C757   1.408       .  A
C753        C754   1.410       .  A
C753      Br1540   1.915       .  S
C754        C755   1.408       .  A
C754        H758   1.083       .  S
C755        C759   1.496       .  S
C755        C756   1.409       .  A
C756        C757   1.402       .  A
C756       Br768   1.918       .  S
C757        H760   1.083       .  S
C759        C761   1.401       .  A
C759        C765   1.414       .  A
C761        C762   1.407       .  A
C761        H766   1.083       .  S
C762        C763   1.421       .  A
C762       Br770   1.921       .  S
C763        C764   1.407       .  A
C764        C765   1.406       .  A
C764        H767   1.084       .  S
C765       Br771   1.919       .  S
Br769      C1524   1.915       .  S
N772        C773   1.365       .  A
N772       C1523   1.449       .  S
C773       C1494   1.484       .  S
C774        C775   1.366       .  A
C774        H777   1.083       .  S
C775        C776   1.377       .  A
C775        H778   1.082       .  S
C776       C1503   1.482       .  S
N779        C783   1.360       .  A
N779        C780   1.362       .  A
C780       C1423   1.479       .  S
C780        C781   1.381       .  A
C781        C782   1.368       .  A
C781        H784   1.083       .  S
C782        C783   1.382       .  A
C782        H785   1.082       .  S
C783       C1474   1.478       .  S
O786        C794   1.271       .  A
O786       Co806   2.035       .  S
O787        C795   1.280       .  A
O787       Co807   2.042       .  S
O788        C796   1.266       .  A
O788       Co808   1.974   1_545  S
O789        C797   1.269       .  A
O789       Co809   1.894       .  S
O790        C796   1.271       .  A
O790       Co807   2.001       .  S
O791        C797   1.296       .  A
O791       Co806   2.102       .  S
O792        C795   1.271       .  A
O792       Co809   1.975       .  S
O793        C794   1.257       .  A
O793       Co808   1.974   1_545  S
C794       C1534   1.500   1_545  S
C795       C1354   1.495       .  S
C796       C1514   1.470   1_545  S
C797       C1374   1.492       .  S
O798        C811   1.269       .  A
O798       Co806   1.920       .  S
O799        C812   1.264   1_545  A
O799       Co807   1.977       .  S
O800        C813   1.282       .  A
O800       Co808   2.038       .  S
O801        C814   1.264       .  A
O801       Co809   2.023       .  S
O802        C814   1.252       .  A
O802       Co807   1.954       .  S
O803        C813   1.265   1_545  A
O803       Co806   1.957       .  S
O804        C811   1.293       .  A
O804       Co809   2.102       .  S
O805        C812   1.272       .  A
O805       Co808   2.033       .  S
Co806       O810   2.018       .  S
Co807       O810   2.019       .  S
Co808       O810   2.036   1_565  S
Co809       O810   2.026       .  S
C811       C1414   1.502       .  S
C812       C1454   1.501       .  S
C813       C1463   1.486       .  S
C814       C1394   1.481       .  S
N815        C819   1.362       .  A
N815        C816   1.368       .  A
N815       C1403   1.454       .  S
C816       C1323   1.490       .  S
C816        C817   1.389       .  A
C817        H820   1.082       .  S
C818        H821   1.082       .  S
N822        C826   1.360       .  A
N822        C823   1.365       .  A
C823       C1314   1.486       .  S
C823        C824   1.386       .  A
C824        C825   1.369       .  A
C824        H827   1.082       .  S
C825        C826   1.378       .  A
C825        H828   1.082       .  S
C826       C1363   1.477       .  S
O829        C837   1.263       .  A
O829       Co849   2.009       .  S
O830        C838   1.266       .  A
O830       Co850   1.894       .  S
O831        C839   1.270       .  A
O831       Co851   2.027       .  S
O832        C840   1.296       .  A
O832       Co852   2.056   1_455  S
O833        C839   1.253       .  A
O833       Co850   1.970       .  S
O834        C840   1.281       .  A
O834       Co849   1.920       .  S
O835        C838   1.302   1_655  A
O835       Co852   2.100       .  S
O836        C837   1.261       .  A
O836       Co851   2.002       .  S
C837       C1283   1.494       .  S
C838       C1143   1.497   1_455  S
C839       C1274   1.475       .  S
C840       C1163   1.488   1_455  S
O841        C854   1.249   1_455  A
O841       Co849   1.968       .  S
O842        C855   1.265       .  A
O842       Co850   2.015       .  S
O843        C856   1.264       .  A
O843       Co851   1.964       .  S
O844        C857   1.257       .  A
O844       Co852   2.012       .  S
O845        C857   1.246   1_455  A
O845       Co850   1.964       .  S
O846        C856   1.283       .  A
O846       Co849   2.047       .  S
O847        C854   1.254       .  A
O847       Co852   2.000       .  S
O848        C855   1.256       .  A
O848       Co851   1.970       .  S
Co849       O853   1.957       .  S
Co850       O853   1.918       .  S
Co851       O853   2.083       .  S
Co852       O853   2.257   1_655  S
C854       C1203   1.489       .  S
C855       C1234   1.484       .  S
C856       C1243   1.496       .  S
C857       C1183   1.476       .  S
N858        C862   1.357       .  A
N858        C859   1.365       .  A
N858       C1254   1.444       .  S
C859       C1123   1.488       .  S
C859        C860   1.386       .  A
C860        C861   1.371       .  A
C860        H863   1.082       .  S
C861        C862   1.377       .  A
C861        H864   1.082       .  S
C862       C1223   1.477       .  S
N865        C869   1.359       .  A
N865        C866   1.359       .  A
N865       C1214   1.443       .  S
C866       C1303   1.479       .  S
C866        C867   1.380       .  A
C867        C868   1.373       .  A
C867        H870   1.082       .  S
C868        C869   1.383       .  A
C868        H871   1.082       .  S
C869       C1194   1.480       .  S
N872        C876   1.361       .  A
N872        C873   1.364       .  A
C873       C1103   1.490       .  S
C873        C874   1.384       .  A
C874        C875   1.373       .  A
C874        H877   1.082       .  S
C875        C876   1.378       .  A
C875        H878   1.082       .  S
C876       C1154   1.485       .  S
N879        C883   1.364       .  A
N879        C880   1.365       .  A
C880       C1434   1.479       .  S
C880        C881   1.384       .  A
C881        C882   1.363       .  A
C881        H884   1.083       .  S
C882        C883   1.379       .  A
C882        H885   1.083       .  S
C883       C1263   1.477       .  S
O886        C894   1.268       .  A
O886       Co906   1.970       .  S
O887        C895   1.258       .  A
O887       Co907   1.972       .  S
O888        C896   1.272       .  A
O888       Co908   2.026       .  S
O889        C897   1.300       .  A
O889       Co909   2.122       .  S
O890        C896   1.263       .  A
O890       Co907   1.969       .  S
O891        C897   1.265       .  A
O891       Co906   1.900       .  S
O892        C895   1.268       .  A
O892       Co909   2.012       .  S
O893        C894   1.282       .  A
O893       Co908   2.031       .  S
C894       C1083   1.490       .  S
C895        C954   1.493       .  S
C896       C1063   1.482       .  S
C897        C963   1.504       .  S
O898        C911   1.298       .  A
O898       Co906   2.111       .  S
O899        C912   1.272       .  A
O899       Co907   2.028       .  S
O900        C913   1.255       .  A
O900       Co908   1.967       .  S
O901        C914   1.272       .  A
O901       Co909   1.986       .  S
O902        C914   1.275       .  A
O902       Co907   2.011       .  S
O903        C913   1.266       .  A
O903       Co906   2.035       .  S
O904        C911   1.268       .  A
O904       Co909   1.898       .  S
O905        C912   1.264       .  A
O905       Co908   1.968       .  S
Co906       O910   2.027       .  S
Co907       O910   2.040       .  S
Co908       O910   2.031       .  S
Co909       O910   2.018       .  S
C911       C1003   1.498       .  S
C912       C1023   1.488       .  S
C913       C1054   1.503       .  S
C914        C983   1.491       .  S
N915        C919   1.364       .  A
N915        C916   1.361       .  A
N915       C1074   1.441       .  S
C916       C1334   1.487       .  S
C916        C917   1.384       .  A
C917        C918   1.368       .  A
C917        H920   1.082       .  S
C918        C919   1.380       .  A
C919       C1094   1.484       .  S
N922        C926   1.365       .  A
N922        C923   1.366       .  A
N922        C974   1.450       .  S
C923       C1134   1.483       .  S
C923        C924   1.383       .  A
C924        C925   1.367       .  A
C924        H927   1.083       .  S
C925        C926   1.379       .  A
C925        H928   1.082       .  S
C926        C943   1.482       .  S
N929        C933   1.356       .  A
N929        C930   1.368       .  A
N929       C1043   1.445       .  S
C930       C1114   1.490       .  S
C930        C931   1.385       .  A
C931        C932   1.373       .  A
C931        H934   1.082       .  S
C932        C933   1.377       .  A
C932        H935   1.082       .  S
C933       C1034   1.477       .  S
N936        C940   1.360       .  A
N936        C937   1.364       .  A
N936       C1014   1.445       .  S
C937       C1483   1.487       .  S
C937        C938   1.386       .  A
C938        C939   1.368       .  A
C938        H941   1.082       .  S
C939        C940   1.378       .  A
C939        H942   1.082       .  S
C940        C994   1.479       .  S
C943        C944   1.409       .  A
C943        C948   1.403       .  A
C944        C945   1.403       .  A
C944       Br960   1.917       .  S
C945        C946   1.407       .  A
C945        H949   1.083       .  S
C946        C950   1.490       .  S
C946        C947   1.411       .  A
C947        C948   1.398       .  A
C947       Br959   1.921       .  S
C948        H951   1.084       .  S
C950        C952   1.402       .  A
C950        C956   1.411       .  A
C952        C953   1.401       .  A
C952        H957   1.084       .  S
C953        C954   1.420       .  A
C953       Br961   1.920       .  S
C954        C955   1.407       .  A
C955        C956   1.400       .  A
C955        H958   1.083       .  S
C956       Br962   1.920       .  S
C963        C964   1.422       .  A
C963        C968   1.411       .  A
C964        C965   1.406       .  A
C964       Br980   1.923       .  S
C965        C966   1.402       .  A
C965        H969   1.084       .  S
C966        C970   1.496       .  S
C966        C967   1.409       .  A
C967        C968   1.409       .  A
C967       Br979   1.917       .  S
C968        H971   1.083       .  S
C970        C976   1.412       .  A
C972        C973   1.406       .  A
C972        H977   1.083       .  S
C973        C974   1.413       .  A
C973       Br981   1.917       .  S
C975        C976   1.408       .  A
C975        H978   1.083       .  S
C976       Br982   1.917       .  S
C983        C984   1.415       .  A
C983        C988   1.412       .  A
C984        C985   1.403       .  A
C984      Br1000   1.920       .  S
C985        C986   1.404       .  A
C985        H989   1.084       .  S
C986        C990   1.480       .  S
C986        C987   1.404       .  A
C987        C988   1.398       .  A
C987       Br999   1.920       .  S
C988        H991   1.083       .  S
C990        C992   1.399       .  A
C990        C996   1.411       .  A
C992        C993   1.394       .  A
C992        H997   1.084       .  S
C993        C994   1.411       .  A
C993      Br1001   1.922       .  S
C994        C995   1.404       .  A
C995        C996   1.406       .  A
C995        H998   1.083       .  S
C996      Br1002   1.917       .  S
C1003      C1004   1.417       .  A
C1003      C1008   1.411       .  A
C1004      C1005   1.404       .  A
C1004     Br1020   1.919       .  S
C1005      C1006   1.404       .  A
C1005      H1009   1.084       .  S
C1006      C1010   1.492       .  S
C1006      C1007   1.407       .  A
C1007      C1008   1.403       .  A
C1007     Br1019   1.919       .  S
C1008      H1011   1.083       .  S
C1010      C1016   1.410       .  A
C1012      C1013   1.405       .  A
C1012      H1017   1.083       .  S
C1013      C1014   1.409       .  A
C1013     Br1021   1.914       .  S
C1015      C1016   1.401       .  A
C1015      H1018   1.083       .  S
C1016     Br1022   1.919       .  S
C1023      C1024   1.416       .  A
C1023      C1028   1.406       .  A
C1024      C1025   1.405       .  A
C1024     Br1040   1.919       .  S
C1025      C1026   1.403       .  A
C1025      H1029   1.083       .  S
C1026      C1030   1.484       .  S
C1026      C1027   1.408       .  A
C1027      C1028   1.396       .  A
C1027     Br1039   1.921       .  S
C1028      H1031   1.083       .  S
C1030      C1032   1.404       .  A
C1030      C1036   1.410       .  A
C1032      C1033   1.399       .  A
C1032      H1037   1.083       .  S
C1033      C1034   1.407       .  A
C1033     Br1041   1.919       .  S
C1034      C1035   1.402       .  A
C1035      C1036   1.402       .  A
C1035      H1038   1.083       .  S
C1036     Br1042   1.918       .  S
C1043      C1044   1.410       .  A
C1044     Br1060   1.914       .  S
C1045      C1046   1.403       .  A
C1045      H1049   1.084       .  S
C1046      C1050   1.496       .  S
C1046      C1047   1.413       .  A
C1047      C1048   1.409       .  A
C1047     Br1059   1.917       .  S
C1048      H1051   1.083       .  S
C1050      C1052   1.408       .  A
C1050      C1056   1.407       .  A
C1052      C1053   1.411       .  A
C1052      H1057   1.083       .  S
C1053      C1054   1.418       .  A
C1053     Br1061   1.920       .  S
C1054      C1055   1.412       .  A
C1055      C1056   1.400       .  A
C1055      H1058   1.083       .  S
C1056     Br1062   1.920       .  S
C1063      C1064   1.413       .  A
C1063      C1068   1.405       .  A
C1064      C1065   1.397       .  A
C1064     Br1080   1.918       .  S
C1065      C1066   1.401       .  A
C1065      H1069   1.084       .  S
C1066      C1070   1.489       .  S
C1066      C1067   1.413       .  A
C1067      C1068   1.407       .  A
C1067     Br1079   1.918       .  S
C1068      H1071   1.084       .  S
C1070      C1072   1.405       .  A
C1070      C1076   1.413       .  A
C1072      C1073   1.399       .  A
C1072      H1077   1.083       .  S
C1073      C1074   1.406       .  A
C1073     Br1081   1.916       .  S
C1074      C1075   1.402       .  A
C1075      C1076   1.404       .  A
C1075      H1078   1.082       .  S
C1076     Br1082   1.919       .  S
C1083      C1084   1.420       .  A
C1083      C1088   1.407       .  A
C1084      C1085   1.401       .  A
C1084     Br1100   1.919       .  S
C1085      C1086   1.400       .  A
C1085      H1089   1.084       .  S
C1086      C1090   1.484       .  S
C1086      C1087   1.408       .  A
C1087      C1088   1.399       .  A
C1087     Br1099   1.919       .  S
C1088      H1091   1.084       .  S
C1090      C1092   1.403       .  A
C1090      C1096   1.407       .  A
C1092      C1093   1.401       .  A
C1092      H1097   1.084       .  S
C1093     Br1101   1.914       .  S
C1094      C1095   1.407   1_556  A
C1095      H1098   1.084       .  S
C1096     Br1102   1.919       .  S
C1103      C1108   1.404       .  A
C1104      C1105   1.403       .  A
C1104     Br1120   1.919       .  S
C1105      C1106   1.404       .  A
C1105      H1109   1.083       .  S
C1106      C1110   1.506       .  S
C1107      C1108   1.411       .  A
C1107     Br1119   1.920       .  S
C1108      H1111   1.083       .  S
C1110      C1116   1.416   1_554  A
C1112      H1117   1.083       .  S
C1113      C1114   1.412       .  A
C1114      C1115   1.406       .  A
C1115      C1116   1.409       .  A
C1115      H1118   1.084       .  S
C1116     Br1122   1.919       .  S
C1123      C1124   1.408       .  A
C1124      C1125   1.408       .  A
C1124     Br1140   1.915       .  S
C1125      C1126   1.410       .  A
C1125      H1129   1.083       .  S
C1127      C1128   1.401       .  A
C1127     Br1139   1.921       .  S
C1128      H1131   1.084       .  S
C1130      C1132   1.405   1_554  A
C1132      C1133   1.400       .  A
C1132      H1137   1.083       .  S
C1133      C1134   1.411       .  A
C1133     Br1141   1.920       .  S
C1135      C1136   1.408       .  A
C1135      H1138   1.083       .  S
C1136     Br1142   1.919       .  S
C1143      C1144   1.415       .  A
C1143      C1148   1.412       .  A
C1144      C1145   1.406       .  A
C1144     Br1160   1.919       .  S
C1145      C1146   1.405       .  A
C1145      H1149   1.083       .  S
C1146      C1150   1.488       .  S
C1146      C1147   1.406       .  A
C1147      C1148   1.400       .  A
C1147     Br1159   1.919       .  S
C1148      H1151   1.083       .  S
C1150      C1152   1.405       .  A
C1150      C1156   1.411       .  A
C1152      C1153   1.405       .  A
C1152      H1157   1.083       .  S
C1153      C1154   1.409       .  A
C1153     Br1161   1.917       .  S
C1154      C1155   1.402       .  A
C1155      C1156   1.401       .  A
C1155      H1158   1.081       .  S
C1156     Br1162   1.920       .  S
C1163      C1164   1.418       .  A
C1163      C1168   1.405       .  A
C1164      C1165   1.402       .  A
C1164     Br1180   1.922       .  S
C1165      C1166   1.400       .  A
C1165      H1169   1.084       .  S
C1166      C1170   1.487   1_556  S
C1166      C1167   1.412   1_556  A
C1167      C1168   1.404   1_554  A
C1167     Br1179   1.920       .  S
C1168      H1171   1.083   1_656  S
C1170      C1172   1.405       .  A
C1170      C1176   1.409       .  A
C1172      H1177   1.083       .  S
C1173     Br1181   1.913       .  S
C1174      C1175   1.403       .  A
C1175      C1176   1.402       .  A
C1175      H1178   1.083       .  S
C1176     Br1182   1.918   1_554  S
C1183      C1184   1.412       .  A
C1183      C1188   1.403       .  A
C1184      C1185   1.397       .  A
C1184     Br1200   1.919       .  S
C1185      C1186   1.401       .  A
C1185      H1189   1.084       .  S
C1186      C1190   1.482       .  S
C1186      C1187   1.410       .  A
C1187      C1188   1.403       .  A
C1187     Br1199   1.918       .  S
C1188      H1191   1.083       .  S
C1190      C1192   1.406       .  A
C1190      C1196   1.407       .  A
C1192      C1193   1.403       .  A
C1192      H1197   1.083       .  S
C1193      C1194   1.408       .  A
C1193     Br1201   1.916       .  S
C1194      C1195   1.404       .  A
C1195      C1196   1.396       .  A
C1195      H1198   1.084       .  S
C1196     Br1202   1.920       .  S
C1203      C1204   1.417       .  A
C1203      C1208   1.408   1_556  A
C1204      C1205   1.403       .  A
C1204     Br1220   1.921       .  S
C1205      C1206   1.402   1_556  A
C1205      H1209   1.083       .  S
C1206      C1210   1.482       .  S
C1206      C1207   1.406       .  A
C1207      C1208   1.399       .  A
C1207     Br1219   1.919       .  S
C1208      H1211   1.083   1_655  S
C1210      C1212   1.400       .  A
C1210      C1216   1.409       .  A
C1212      H1217   1.084       .  S
C1213      C1214   1.411       .  A
C1213     Br1221   1.916       .  S
C1214      C1215   1.404       .  A
C1215      H1218   1.083       .  S
C1216     Br1222   1.917       .  S
C1223      C1224   1.407       .  A
C1223      C1228   1.402       .  A
C1224      C1225   1.398       .  A
C1224     Br1240   1.918       .  S
C1225      C1226   1.403       .  A
C1225      H1229   1.084       .  S
C1226      C1230   1.477       .  S
C1226      C1227   1.409       .  A
C1227      C1228   1.399       .  A
C1227     Br1239   1.918       .  S
C1228      H1231   1.083       .  S
C1230      C1232   1.399       .  A
C1230      C1236   1.406       .  A
C1232      C1233   1.396       .  A
C1232      H1237   1.084       .  S
C1233      C1234   1.418       .  A
C1233     Br1241   1.924       .  S
C1234      C1235   1.408       .  A
C1235      C1236   1.402       .  A
C1235      H1238   1.083       .  S
C1236     Br1242   1.917       .  S
C1243      C1244   1.420       .  A
C1243      C1248   1.408   1_556  A
C1244      C1245   1.399       .  A
C1244     Br1260   1.924       .  S
C1245      C1246   1.400   1_556  A
C1245      H1249   1.084       .  S
C1246      C1250   1.495       .  S
C1246      C1247   1.413       .  A
C1247      C1248   1.408       .  A
C1247     Br1259   1.917       .  S
C1248      H1251   1.083       .  S
C1250      C1252   1.409       .  A
C1250      C1256   1.410       .  A
C1252      C1253   1.408       .  A
C1252      H1257   1.083       .  S
C1253     Br1261   1.914       .  S
C1255      C1256   1.398       .  A
C1256     Br1262   1.920       .  S
C1263      C1264   1.410       .  A
C1263      C1268   1.406       .  A
C1264      C1265   1.398       .  A
C1264     Br1280   1.916       .  S
C1265      C1266   1.401       .  A
C1265      H1269   1.084       .  S
C1266      C1270   1.468       .  S
C1266      C1267   1.403       .  A
C1267      C1268   1.394       .  A
C1267     Br1279   1.919       .  S
C1268      H1271   1.084       .  S
C1270      C1272   1.404       .  A
C1270      C1276   1.400       .  A
C1272      C1273   1.398       .  A
C1272      H1277   1.082       .  S
C1273      C1274   1.406       .  A
C1273     Br1281   1.918       .  S
C1274      C1275   1.410       .  A
C1275      C1276   1.395       .  A
C1275      H1278   1.071       .  S
C1276     Br1282   1.920       .  S
C1283      C1284   1.409       .  A
C1283      C1288   1.408       .  A
C1284      C1285   1.411       .  A
C1284     Br1300   1.916       .  S
C1285      C1286   1.412       .  A
C1285      H1289   1.083       .  S
C1286      C1290   1.502   1_556  S
C1286      C1287   1.413       .  A
C1287      C1288   1.402       .  A
C1287     Br1299   1.922   1_556  S
C1288      H1291   1.084       .  S
C1290      C1292   1.404       .  A
C1290      C1296   1.417       .  A
C1292      C1293   1.402       .  A
C1292      H1297   1.083       .  S
C1293      C1294   1.412       .  A
C1294      C1295   1.405       .  A
C1295      C1296   1.408       .  A
C1295      H1298   1.082       .  S
C1296     Br1302   1.919   1_554  S
C1303      C1304   1.410       .  A
C1303      C1308   1.402       .  A
C1304      C1305   1.403       .  A
C1304     Br1320   1.918       .  S
C1305      C1306   1.404       .  A
C1305      H1309   1.083       .  S
C1306      C1310   1.486       .  S
C1307     Br1319   1.920       .  S
C1310      C1316   1.413       .  A
C1312      C1313   1.398       .  A
C1312      H1317   1.084       .  S
C1313      C1314   1.416       .  A
C1313     Br1321   1.922       .  S
C1315      C1316   1.405       .  A
C1315      H1318   1.083       .  S
C1316     Br1322   1.918       .  S
C1323      C1324   1.413       .  A
C1323      C1328   1.404       .  A
C1324      C1325   1.400       .  A
C1324     Br1340   1.921       .  S
C1325      C1326   1.406       .  A
C1325      H1329   1.081       .  S
C1326      C1330   1.505       .  S
C1326      C1327   1.418       .  A
C1327      C1328   1.408       .  A
C1327     Br1339   1.920       .  S
C1328      H1331   1.083       .  S
C1330      C1332   1.406       .  A
C1330      C1336   1.420       .  A
C1332      C1333   1.393       .  A
C1332      H1337   1.082       .  S
C1333      C1334   1.409       .  A
C1334      C1335   1.405       .  A
C1335      C1336   1.411       .  A
C1335      H1338   1.083       .  S
C1336     Br1342   1.919       .  S
C1343      C1344   1.410       .  A
C1343      C1348   1.405       .  A
C1344      C1345   1.409       .  A
C1345      C1346   1.408       .  A
C1345      H1349   1.083       .  S
C1346      C1350   1.493       .  S
C1346      C1347   1.408       .  A
C1347      C1348   1.400       .  A
C1347     Br1359   1.919       .  S
C1348      H1351   1.083       .  S
C1350      C1352   1.405       .  A
C1350      C1356   1.408       .  A
C1352      C1353   1.405       .  A
C1352      H1357   1.084       .  S
C1353      C1354   1.416       .  A
C1353     Br1361   1.920       .  S
C1354      C1355   1.410       .  A
C1355      C1356   1.405       .  A
C1355      H1358   1.083       .  S
C1356     Br1362   1.918       .  S
C1363      C1364   1.408       .  A
C1363      C1368   1.401       .  A
C1364      C1365   1.401       .  A
C1364     Br1380   1.918       .  S
C1365      C1366   1.403       .  A
C1365      H1369   1.083       .  S
C1366      C1370   1.482       .  S
C1366      C1367   1.410       .  A
C1367      C1368   1.400       .  A
C1367     Br1379   1.919       .  S
C1368      H1371   1.084       .  S
C1370      C1372   1.400       .  A
C1370      C1376   1.407       .  A
C1372      C1373   1.403       .  A
C1372      H1377   1.084       .  S
C1373      C1374   1.420       .  A
C1373     Br1381   1.921       .  S
C1374      C1375   1.408       .  A
C1375      C1376   1.399       .  A
C1375      H1378   1.083       .  S
C1376     Br1382   1.919       .  S
C1383      C1384   1.404       .  A
C1383      C1388   1.403       .  A
C1384      C1385   1.400       .  A
C1385      C1386   1.408       .  A
C1385      H1389   1.083       .  S
C1386      C1390   1.478       .  S
C1386      C1387   1.407       .  A
C1387      C1388   1.394       .  A
C1387     Br1399   1.920       .  S
C1388      H1391   1.084       .  S
C1390      C1392   1.404       .  A
C1390      C1396   1.406       .  A
C1392      C1393   1.402       .  A
C1392      H1397   1.084       .  S
C1393      C1394   1.415       .  A
C1393     Br1401   1.920       .  S
C1394      C1395   1.407       .  A
C1395      C1396   1.393       .  A
C1395      H1398   1.084       .  S
C1396     Br1402   1.921       .  S
C1403      C1404   1.415       .  A
C1403      C1408   1.409       .  A
C1404      C1405   1.406       .  A
C1404     Br1420   1.915       .  S
C1405      C1406   1.402       .  A
C1405      H1409   1.083       .  S
C1406      C1410   1.495       .  S
C1406      C1407   1.409       .  A
C1407      C1408   1.407       .  A
C1407     Br1419   1.917       .  S
C1408      H1411   1.083       .  S
C1410      C1412   1.400       .  A
C1410      C1416   1.411       .  A
C1412      C1413   1.405       .  A
C1412      H1417   1.083       .  S
C1413      C1414   1.422       .  A
C1413     Br1421   1.920       .  S
C1414      C1415   1.408       .  A
C1415      C1416   1.407       .  A
C1415      H1418   1.083       .  S
C1416     Br1422   1.914       .  S
C1423      C1424   1.412       .  A
C1424      C1425   1.402       .  A
C1424     Br1440   1.918       .  S
C1425      H1429   1.083       .  S
C1426      C1430   1.486       .  S
C1426      C1427   1.411       .  A
C1427      C1428   1.399       .  A
C1427     Br1439   1.920       .  S
C1428      H1431   1.083       .  S
C1430      C1432   1.399       .  A
C1432      C1433   1.396       .  A
C1432      H1437   1.084       .  S
C1433      C1434   1.414       .  A
C1433     Br1441   1.922       .  S
C1435      C1436   1.404       .  A
C1435      H1438   1.083       .  S
C1436     Br1442   1.918   1_554  S
C1443      C1444   1.414       .  A
C1443      C1448   1.406       .  A
C1444      C1445   1.401       .  A
C1444     Br1460   1.917       .  S
C1445      C1446   1.402       .  A
C1445      H1449   1.084       .  S
C1446      C1450   1.498       .  S
C1446      C1447   1.414       .  A
C1447      C1448   1.410       .  A
C1447     Br1459   1.915       .  S
C1448      H1451   1.083       .  S
C1450      C1452   1.405       .  A
C1450      C1456   1.411       .  A
C1452      C1453   1.410       .  A
C1452      H1457   1.083       .  S
C1453      C1454   1.417       .  A
C1453     Br1461   1.919       .  S
C1454      C1455   1.409       .  A
C1455      C1456   1.404       .  A
C1455      H1458   1.083   1_565  S
C1456     Br1462   1.920       .  S
C1463      C1464   1.417       .  A
C1463      C1468   1.407       .  A
C1464      C1465   1.400       .  A
C1464     Br1480   1.923   1_565  S
C1465      C1466   1.402       .  A
C1465      H1469   1.084       .  S
C1466      C1470   1.483       .  S
C1466      C1467   1.409       .  A
C1467      C1468   1.399       .  A
C1467     Br1479   1.920       .  S
C1468      H1471   1.083       .  S
C1470      C1472   1.399       .  A
C1470      C1476   1.414       .  A
C1472      C1473   1.394       .  A
C1472      H1477   1.084       .  S
C1473      C1474   1.413       .  A
C1473     Br1481   1.922       .  S
C1474      C1475   1.401       .  A
C1475      C1476   1.404       .  A
C1475      H1478   1.083       .  S
C1476     Br1482   1.918       .  S
C1483      C1484   1.414       .  A
C1483      C1488   1.403       .  A
C1484      C1485   1.402       .  A
C1484     Br1500   1.920       .  S
C1485      C1486   1.403       .  A
C1485      H1489   1.083       .  S
C1486      C1490   1.492       .  S
C1486      C1487   1.412       .  A
C1487      C1488   1.403       .  A
C1487     Br1499   1.918       .  S
C1488      H1491   1.082       .  S
C1490      C1492   1.408       .  A
C1490      C1496   1.409       .  A
C1492      C1493   1.403       .  A
C1492      H1497   1.083       .  S
C1493      C1494   1.405       .  A
C1493     Br1501   1.915       .  S
C1495      H1498   1.084       .  S
C1503      C1504   1.412       .  A
C1503      C1508   1.404       .  A
C1504      C1505   1.395       .  A
C1504     Br1520   1.921       .  S
C1505      C1506   1.399       .  A
C1505      H1509   1.084       .  S
C1506      C1510   1.475       .  S
C1506      C1507   1.406       .  A
C1507      C1508   1.399       .  A
C1507     Br1519   1.920       .  S
C1510      C1512   1.405       .  A
C1510      C1516   1.408       .  A
C1512      C1513   1.402       .  A
C1512      H1517   1.083       .  S
C1513      C1514   1.409       .  A
C1513     Br1521   1.918   1_565  S
C1514      C1515   1.402       .  A
C1515      C1516   1.390       .  A
C1515      H1518   1.084       .  S
C1516     Br1522   1.921       .  S
C1523      C1524   1.410       .  A
C1523      C1528   1.408       .  A
C1524      C1525   1.410       .  A
C1525      C1526   1.408       .  A
C1525      H1529   1.083       .  S
C1526      C1530   1.496       .  S
C1526      C1527   1.409       .  A
C1527      C1528   1.402       .  A
C1527     Br1539   1.918       .  S
C1528      H1531   1.082       .  S
C1530      C1532   1.401       .  A
C1530      C1536   1.414       .  A
C1532      C1533   1.407       .  A
C1532      H1537   1.083       .  S
C1533      C1534   1.421       .  A
C1533     Br1541   1.921       .  S
C1534      C1535   1.407       .  A
C1535      C1536   1.406       .  A
C1535      H1538   1.084       .  S
C1536     Br1542   1.919       .  S
