geometry optimzed in LAMMPS
_audit_creation_date              2020-12-01 
_audit_creation_method            'lammps2cif' 
_symmetry_space_group_name_H-M    'P1' 
_symmetry_Int_Tables_number       1 
_symmetry_cell_setting            triclinic 
loop_ 
_symmetry_equiv_pos_as_xyz 
  x,y,z 
_cell_length_a                    30.23809169 
_cell_length_b                    29.667776571747375 
_cell_length_c                    30.855646812463156 
_cell_angle_alpha                 89.9298038985022 
_cell_angle_beta                  90.21771546547714 
_cell_angle_gamma                 89.87877701736086 
loop_ 
_atom_site_label 
_atom_site_type_symbol 
_atom_site_fract_x 
_atom_site_fract_y 
_atom_site_fract_z 
_atom_site_charge 
O1          O  0.55584751  0.53886199  0.68836630    -0.72200
O2          O  0.47196564  0.43802102  0.68809718    -0.72400
O3          O  0.56310416  0.44582109  0.68212086    -0.72300
O4          O  0.46503037  0.53092666  0.69395062    -0.72300
O5          O  0.47822208  0.54649397  0.62670053    -0.72300
O6          O  0.53963992  0.43897784  0.61616823    -0.72300
O7          O  0.45596370  0.46095900  0.62338768    -0.72200
O8          O  0.56193125  0.52447185  0.62002375    -0.72400
V9          V  0.51403722  0.48834184  0.68855335     1.35200
V10         V  0.50903894  0.49265299  0.62267763     1.35200
C11         C  0.57348973  0.54819647  0.65188758     0.77000
C12         C  0.44871990  0.43352340  0.65367644     0.77100
C13         C  0.56688030  0.42741481  0.64490682     0.77000
C14         C  0.45584833  0.55398718  0.66009828     0.76900
O15         O  0.63247971  0.47332871  0.53681502    -0.72200
O16         O  0.62384075  0.53987395  0.43518702    -0.72400
O17         O  0.62827229  0.45368856  0.45405792    -0.72300
O18         O  0.62816730  0.55977306  0.51803077    -0.72300
O19         O  0.69786971  0.55102685  0.53148155    -0.72300
O20         O  0.69484882  0.46771864  0.43278139    -0.72300
O21         O  0.69193026  0.56067169  0.44247316    -0.72200
O22         O  0.70074238  0.45809691  0.52193726    -0.72400
V23         V  0.62935324  0.50674399  0.48595730     1.35200
V24         V  0.69672634  0.50935913  0.48214870     1.35200
C25         C  0.66594316  0.44910591  0.54362572     0.77000
C26         C  0.65408047  0.56679095  0.42492717     0.77100
C27         C  0.65891314  0.44568574  0.42771928     0.77000
C28         C  0.66124402  0.57030298  0.54066880     0.76900
O29         O  0.46042443  0.63464077  0.45116261    -0.72200
O30         O  0.52575087  0.62869593  0.55262610    -0.72400
O31         O  0.44109732  0.62753648  0.53415728    -0.72300
O32         O  0.54475528  0.63605480  0.47024016    -0.72300
O33         O  0.53096908  0.70643728  0.45768297    -0.72300
O34         O  0.45023250  0.69618785  0.55593923    -0.72300
O35         O  0.54060259  0.69979578  0.54627313    -0.72200
O36         O  0.43983511  0.70245764  0.46696960    -0.72400
V37         V  0.49286473  0.63289354  0.50207873     1.35200
V38         V  0.49035687  0.70158842  0.50670975     1.35200
C39         C  0.43399125  0.66666801  0.44478841     0.77000
C40         C  0.54942149  0.66156634  0.56326747     0.77100
C41         C  0.43167408  0.65795852  0.56100532     0.77000
C42         C  0.55275424  0.67084061  0.44833845     0.76900
O43         O  0.37210140  0.52148209  0.56030309    -0.72200
O44         O  0.36756390  0.47207986  0.45013923    -0.72400
O45         O  0.36512321  0.55426305  0.48121428    -0.72300
O46         O  0.37421693  0.43962890  0.52899992    -0.72300
O47         O  0.30714980  0.44561683  0.55252299    -0.72300
O48         O  0.29646223  0.54126088  0.46590918    -0.72300
O49         O  0.30113399  0.44869221  0.46307269    -0.72200
O50         O  0.30280125  0.53882935  0.55558333    -0.72400
V51         V  0.36866880  0.49687092  0.50525322     1.35200
V52         V  0.30140582  0.49357477  0.50936233     1.35200
C53         C  0.34026921  0.54456224  0.57404484     0.77000
C54         C  0.33616072  0.44646726  0.44012163     0.77100
C55         C  0.33136052  0.56433088  0.45928226     0.77000
C56         C  0.34465418  0.42580944  0.55423135     0.76900
O57         O  0.55025399  0.30535348  0.43562851    -0.72200
O58         O  0.46175834  0.29606418  0.52773794    -0.72400
O59         O  0.45859729  0.30256750  0.43801703    -0.72300
O60         O  0.55333254  0.29878346  0.52544904    -0.72300
O61         O  0.56002698  0.36980739  0.51145137    -0.72300
O62         O  0.44796934  0.37031420  0.46142912    -0.72300
O63         O  0.47866567  0.36548256  0.54099560    -0.72200
O64         O  0.52922016  0.37492125  0.43173937    -0.72400
V65         V  0.50600382  0.30030774  0.48167219     1.35200
V66         V  0.50401913  0.36893704  0.48630371     1.35200
C67         C  0.55369343  0.34399348  0.41760253     0.77000
C68         C  0.45617644  0.33138571  0.55077136     0.77100
C69         C  0.43651111  0.33930370  0.43603714     0.77000
C70         C  0.57320140  0.33605307  0.53262409     0.76900
O71         O  0.43678562  0.53722930  0.37541454    -0.72200
O72         O  0.54687928  0.48384656  0.36334337    -0.72400
O73         O  0.51812639  0.56703095  0.37040883    -0.72300
O74         O  0.46508596  0.45438805  0.36793582    -0.72300
O75         O  0.44061156  0.46892579  0.30335968    -0.72300
O76         O  0.53179955  0.56186651  0.30188052    -0.72300
O77         O  0.53160001  0.46878585  0.29636677    -0.72200
O78         O  0.44034452  0.56111190  0.30919126    -0.72400
V79         V  0.49171602  0.51071941  0.36818058     1.35200
V80         V  0.48613561  0.51524039  0.30229434     1.35200
C81         C  0.42220549  0.56306786  0.34646535     0.77000
C82         C  0.55522940  0.46121477  0.32998964     0.77100
C83         C  0.53969833  0.58072112  0.33824391     0.77000
C84         C  0.43820869  0.44553459  0.33797277     0.76900
C85         C  0.65155684  0.65338750  0.63934764     0.86100
C86         C  0.67781355  0.62712580  0.60361430    -0.54200
C87         C  0.65126589  0.59983752  0.57885476     0.09000
C88         C  0.60290869  0.60129444  0.59305054     0.19900
C89         C  0.61399752  0.67829043  0.61431539    -0.54900
C90         C  0.58822072  0.65039486  0.59060920     0.09100
C91         C  0.62724232  0.61599139  0.66625250    -0.54400
C92         C  0.60203875  0.58792252  0.64088324     0.09700
H93         H  0.71303030  0.63082882  0.59804961     0.14200
H94         H  0.58161292  0.57961953  0.57285303    -0.00100
H95         H  0.60801544  0.71436889  0.61574157     0.14500
H96         H  0.63004163  0.61225236  0.70113830     0.14300
C97         C  0.85645124  0.84034860  0.85092052     0.86100
C98         C  0.88636939  0.87276671  0.82373224    -0.54200
C99         C  0.91147377  0.90077626  0.84908482     0.09000
C100        C  0.90358871  0.89352347  0.89755279     0.19900
C101        C  0.88887595  0.81559689  0.88233036    -0.54900
C102        C  0.91311814  0.84402092  0.90714239     0.09100
C103        C  0.82850059  0.87210088  0.88076388    -0.54400
C104        C  0.85414524  0.90068493  0.90501304     0.09700
H105        H  0.88765879  0.87299448  0.78859212     0.14200
H106        H  0.92418447  0.91575634  0.91791443    -0.00100
H107        H  0.89180922  0.77922014  0.88507084     0.14500
H108        H  0.79265611  0.87184066  0.88224801     0.14300
C109        C  0.66553301  0.34560472  0.62254492     0.86100
C110        C  0.68805831  0.38284252  0.59427023    -0.54200
C111        C  0.65853899  0.40954826  0.57269425     0.09000
C112        C  0.61069507  0.39564466  0.58058830     0.19900
C113        C  0.63270491  0.37189735  0.65224409    -0.54900
C114        C  0.60334919  0.39769852  0.62951534     0.09100
C115        C  0.63548759  0.31883924  0.58994175    -0.54400
C116        C  0.60679279  0.34615152  0.56732492     0.09700
H117        H  0.72353304  0.38793617  0.59235745     0.14200
H118        H  0.58728687  0.41744388  0.56276669    -0.00100
H119        H  0.63268367  0.36988536  0.68736816     0.14500
H120        H  0.63750296  0.28269457  0.58498738     0.14300
C121        C  0.83338663  0.14748430  0.86142284     0.86100
C122        C  0.86659712  0.17639212  0.88897098    -0.54200
C123        C  0.89618928  0.15058985  0.91207322     0.09000
C124        C  0.88872043  0.10005625  0.90552854     0.19900
C125        C  0.86302622  0.11610113  0.83308635    -0.54900
C126        C  0.89192312  0.09084786  0.85695018     0.09100
C127        C  0.81121082  0.11506562  0.89501543    -0.54400
C128        C  0.84102406  0.09041534  0.91848547     0.09700
H129        H  0.86656251  0.21295415  0.88973289     0.14200
H130        H  0.91240833  0.07937651  0.92419829    -0.00100
H131        H  0.86060467  0.11366433  0.79806139     0.14500
H132        H  0.77576415  0.11217558  0.89963382     0.14300
C133        C  0.35659783  0.63790780  0.66226118     0.86100
C134        C  0.38097747  0.66791735  0.62821051    -0.54200
C135        C  0.40431553  0.64328862  0.59867905     0.09000
C136        C  0.40187574  0.59271005  0.60723614     0.19900
C137        C  0.32813160  0.60424693  0.63491665    -0.54900
C138        C  0.35287077  0.58008822  0.60600871     0.09100
C139        C  0.39364441  0.60834559  0.68328849    -0.54400
C140        C  0.41771288  0.58501487  0.65370496     0.09700
H141        H  0.37939062  0.70445937  0.62751175     0.14200
H142        H  0.42175417  0.57340254  0.58376309    -0.00100
H143        H  0.29271967  0.59987230  0.63857889     0.14500
H144        H  0.40040011  0.60667887  0.71783452     0.14300
C145        C  0.15023305  0.86239075  0.83379724     0.86100
C146        C  0.17748263  0.89183336  0.86647042    -0.54200
C147        C  0.15110915  0.91495912  0.89486817     0.09000
C148        C  0.10189527  0.90691934  0.88672925     0.19900
C149        C  0.12024660  0.83194777  0.86273591    -0.54900
C150        C  0.09454720  0.85614678  0.89059045     0.09100
C151        C  0.11789694  0.89620575  0.81121074    -0.54400
C152        C  0.09302606  0.92009726  0.83974109     0.09700
H153        H  0.21331718  0.89361939  0.86709590     0.14200
H154        H  0.08063845  0.92607039  0.90908042    -0.00100
H155        H  0.11951686  0.79541494  0.86104313     0.14500
H156        H  0.11570898  0.90124978  0.77641650     0.14300
C157        C  0.63359825  0.67079037  0.34926947     0.86100
C158        C  0.66331056  0.63551347  0.37339421    -0.54200
C159        C  0.63954714  0.60578265  0.39768862     0.09000
C160        C  0.58994428  0.61523722  0.39622176     0.19900
C161        C  0.59918850  0.64225356  0.32308391    -0.54900
C162        C  0.57584741  0.61319915  0.34872218     0.09100
C163        C  0.60585699  0.69390514  0.38587202    -0.54400
C164        C  0.58312998  0.66382580  0.41081291     0.09700
H165        H  0.69907815  0.63409868  0.37087978     0.14200
H166        H  0.57137884  0.59133809  0.41651069    -0.00100
H167        H  0.59367044  0.64540894  0.28844001     0.14500
H168        H  0.60465616  0.73001291  0.39137318     0.14300
C169        C  0.86777909  0.82787726  0.14110909     0.86100
C170        C  0.83874941  0.85705785  0.10979697    -0.54200
C171        C  0.86292141  0.88611273  0.08521770     0.09000
C172        C  0.91244674  0.88316713  0.09471009     0.19900
C173        C  0.90268896  0.80453538  0.11117483    -0.54900
C174        C  0.92659604  0.83445075  0.08715414     0.09100
C175        C  0.89507827  0.86263417  0.16841811    -0.54400
C176        C  0.91836191  0.89216305  0.14316049     0.09700
H177        H  0.80301119  0.85464272  0.10740599     0.14200
H178        H  0.93142694  0.90675386  0.07439779    -0.00100
H179        H  0.90809564  0.76839340  0.10972258     0.14500
H180        H  0.89537982  0.86378179  0.20356844     0.14300
C181        C  0.36542408  0.33247670  0.64145150     0.86100
C182        C  0.39462291  0.36621300  0.66820017    -0.54200
C183        C  0.41754035  0.39585000  0.64257312     0.09000
C184        C  0.40939736  0.38786076  0.59427266     0.19900
C185        C  0.33578219  0.36285360  0.61182603    -0.54900
C186        C  0.35959123  0.39181544  0.58675892     0.09100
C187        C  0.39853149  0.30912195  0.60953781    -0.54400
C188        C  0.42194574  0.33898929  0.58495682     0.09700
H189        H  0.39643193  0.36659220  0.70332574     0.14200
H190        H  0.42808591  0.41158255  0.57383632    -0.00100
H191        H  0.29995190  0.36104679  0.61059915     0.14500
H192        H  0.40287137  0.27290582  0.60692809     0.14300
C193        C  0.13281480  0.16920819  0.84904540     0.86100
C194        C  0.10394635  0.19261929  0.88465928    -0.54200
C195        C  0.08121504  0.16277818  0.90988200     0.09000
C196        C  0.08873506  0.11394576  0.89619043     0.19900
C197        C  0.16238022  0.13491642  0.87457950    -0.54900
C198        C  0.13843186  0.10529577  0.89886800     0.09100
C199        C  0.09949632  0.13940299  0.82269160    -0.54400
C200        C  0.07590692  0.11043739  0.84832761     0.09700
H201        H  0.10256800  0.22878275  0.88976475     0.14200
H202        H  0.07000259  0.09028496  0.91664762    -0.00100
H203        H  0.19821825  0.13399055  0.87296100     0.14500
H204        H  0.09509815  0.14144754  0.78782657     0.14300
C205        C  0.33247324  0.65467286  0.36694711     0.86100
C206        C  0.36051407  0.62243251  0.33810457    -0.54200
C207        C  0.38898347  0.59644597  0.36142526     0.09000
C208        C  0.38651799  0.60527801  0.41007570     0.19900
C209        C  0.30944753  0.62334191  0.40079113    -0.54900
C210        C  0.33874045  0.59774521  0.42390008     0.09100
C211        C  0.36692965  0.68240101  0.39377319    -0.54400
C212        C  0.39579034  0.65546369  0.41621102     0.09700
H213        H  0.35808961  0.62069989  0.30303335     0.14200
H214        H  0.40961988  0.58359860  0.42842841    -0.00100
H215        H  0.27400281  0.62210732  0.40606938     0.14500
H216        H  0.36849727  0.71893550  0.39424644     0.14300
C217        C  0.17074344  0.85174244  0.12939221     0.86100
C218        C  0.13627350  0.87684843  0.15840009    -0.54200
C219        C  0.10573456  0.90041806  0.13484863     0.09000
C220        C  0.11393474  0.89771016  0.08617374     0.19900
C221        C  0.14257094  0.82257708  0.09729302    -0.54900
C222        C  0.11277295  0.84778274  0.07408569     0.09100
C223        C  0.19172318  0.88925261  0.10060330    -0.54400
C224        C  0.16112145  0.91367578  0.07822126     0.09700
H225        H  0.13593376  0.87540876  0.19354962     0.14200
H226        H  0.08973466  0.91794856  0.06772270    -0.00100
H227        H  0.14662712  0.78650972  0.09297757     0.14500
H228        H  0.22694255  0.89589250  0.09855941     0.14300
C229        C  0.64328577  0.36476792  0.32810625     0.86100
C230        C  0.67167946  0.39219000  0.36149177    -0.54200
C231        C  0.64642040  0.41534844  0.39082299     0.09000
C232        C  0.59686043  0.40925447  0.38291164     0.19900
C233        C  0.61223116  0.33451934  0.35632374    -0.54900
C234        C  0.58745353  0.35872014  0.38512628     0.09100
C235        C  0.61187634  0.40045966  0.30687109    -0.54400
C236        C  0.58790933  0.42416379  0.33635563     0.09700
H237        H  0.70755719  0.39287832  0.36172412     0.14200
H238        H  0.57665555  0.42839717  0.40620378    -0.00100
H239        H  0.60991742  0.29816444  0.35324224     0.14500
H240        H  0.60943794  0.40660088  0.27225517     0.14300
C241        C  0.85060496  0.13387476  0.15752780     0.86100
C242        C  0.88740711  0.10465979  0.17964426    -0.54200
C243        C  0.91322395  0.08213790  0.15083314     0.09000
C244        C  0.89913687  0.09013595  0.10392175     0.19900
C245        C  0.87587471  0.16472651  0.12479197    -0.54900
C246        C  0.90085508  0.14091856  0.09594485     0.09100
C247        C  0.82406903  0.09979837  0.12861701    -0.54400
C248        C  0.85059617  0.07624962  0.10057129     0.09700
H249        H  0.89267896  0.10256735  0.21441151     0.14200
H250        H  0.92033878  0.07149750  0.08111643    -0.00100
H251        H  0.87354860  0.20123112  0.12429956     0.14500
H252        H  0.78867235  0.09444622  0.13097494     0.14300
C253        C  0.34369985  0.35732529  0.34776581     0.86100
C254        C  0.37505655  0.32730784  0.37681776    -0.54200
C255        C  0.40199124  0.35252212  0.40329986     0.09000
C256        C  0.39524349  0.40319441  0.39703496     0.19900
C257        C  0.31881660  0.38828357  0.38039225    -0.54900
C258        C  0.34647951  0.41279191  0.40593571     0.09100
C259        C  0.37544555  0.38921979  0.32269028    -0.54400
C260        C  0.40308441  0.41266831  0.34911558     0.09700
H261        H  0.37573717  0.29080295  0.37697315     0.14200
H262        H  0.41713046  0.42365339  0.41783498    -0.00100
H263        H  0.28306405  0.39107148  0.38223309     0.14500
H264        H  0.37609748  0.39239026  0.28763457     0.14300
C265        C  0.14893389  0.15047594  0.14332839     0.86100
C266        C  0.12321649  0.11309653  0.16810562    -0.54200
C267        C  0.09727472  0.08756843  0.14185057     0.09000
C268        C  0.09887823  0.10245352  0.09452571     0.19900
C269        C  0.17423692  0.12519818  0.10670066    -0.54900
C270        C  0.14723202  0.10031550  0.08073889     0.09100
C271        C  0.11219716  0.17859543  0.11897855    -0.54400
C272        C  0.08551819  0.15221491  0.09332293     0.09700
H273        H  0.12633032  0.10688715  0.20267665     0.14200
H274        H  0.07767408  0.08113897  0.07386825    -0.00100
H275        H  0.20976615  0.12693292  0.10205596     0.14500
H276        H  0.10751187  0.21468967  0.12173427     0.14300
O277        O  0.12553235  0.05975244  0.02005143    -0.72200
O278        O  0.13053093  0.95370619  0.95686331    -0.72400
O279        O  0.13261768  0.97406637  0.03930634    -0.72300
O280        O  0.12328741  0.03969341  0.93726423    -0.72300
O281        O  0.19086275  0.06215920  0.94501047    -0.72300
O282        O  0.20182072  0.96158268  0.02614863    -0.72300
O283        O  0.19711757  0.96939167  0.93672155    -0.72200
O284        O  0.19549156  0.05375190  0.03403525    -0.72400
V285        V  0.12918532  0.00688110  0.98824530     1.35200
V286        V  0.19661049  0.01172648  0.98541702     1.35200
C287        C  0.15805019  0.07136229  0.04286735     0.77000
C288        C  0.16196059  0.94626861  0.93131752     0.77100
C289        C  0.16706091  0.95189107  0.04754786     0.77000
C290        C  0.15310442  0.06713291  0.92700807     0.76900
O291        O  0.93976681  0.12602619  0.03270282    -0.72200
O292        O  0.04451431  0.13596838  0.97088261    -0.72400
O293        O  0.02378668  0.13017949  0.05351670    -0.72300
O294        O  0.96032485  0.13184516  0.95014862    -0.72300
O295        O  0.93778788  0.19935148  0.96437228    -0.72300
O296        O  0.03781615  0.20113580  0.04623387    -0.72300
O297        O  0.02890152  0.20558042  0.95661347    -0.72200
O298        O  0.94681757  0.19500549  0.05406649    -0.72400
V299        V  0.99203868  0.13217444  0.00187668     1.35200
V300        V  0.98778582  0.20071914  0.00533152     1.35200
C301        C  0.92898932  0.15635808  0.05905942     0.77000
C302        C  0.05141169  0.17024857  0.94789396     0.77100
C303        C  0.04689273  0.16347621  0.06447597     0.77000
C304        C  0.93326061  0.16309033  0.94238749     0.76900
O305        O  0.05111886  0.03922818  0.18882515    -0.72200
O306        O  0.97022860  0.93642589  0.18948999    -0.72400
O307        O  0.06141101  0.94701991  0.18554516    -0.72300
O308        O  0.96050854  0.02929525  0.19291458    -0.72300
O309        O  0.97462395  0.04334201  0.12554194    -0.72300
O310        O  0.03976056  0.93744613  0.11934837    -0.72300
O311        O  0.95518849  0.95755916  0.12402422    -0.72200
O312        O  0.05898626  0.02363271  0.12075641    -0.72400
V313        V  0.01079138  0.98792901  0.18961491     1.35200
V314        V  0.00721138  0.99037128  0.12353308     1.35200
C315        C  0.06926156  0.04798514  0.15247127     0.77000
C316        C  0.94799396  0.93066463  0.15463481     0.77100
C317        C  0.06703321  0.92804546  0.14887075     0.77000
C318        C  0.95150646  0.05134930  0.15838884     0.76900
O319        O  0.86808128  0.04631697  0.97503916    -0.72200
O320        O  0.87863442  0.93433402  0.02795479    -0.72400
O321        O  0.87269109  0.96265391  0.94751881    -0.72300
O322        O  0.87357695  0.01786263  0.05556111    -0.72300
O323        O  0.80365356  0.03178107  0.04948623    -0.72300
O324        O  0.80625185  0.93891111  0.95921303    -0.72300
O325        O  0.81045880  0.93842717  0.04859639    -0.72200
O326        O  0.79966827  0.03214984  0.95973871    -0.72400
V327        V  0.87204855  0.99022889  0.00157074     1.35200
V328        V  0.80468609  0.98532990  0.00428090     1.35200
C329        C  0.83421883  0.05586244  0.95312798     0.77000
C330        C  0.84846006  0.91983149  0.05208274     0.77100
C331        C  0.84202254  0.93599599  0.93751952     0.77000
C332        C  0.84047946  0.03979740  0.06836950     0.76900
O333        O  0.94607961  0.95971504  0.80255140    -0.72200
O334        O  0.03484848  0.05609730  0.80133247    -0.72400
O335        O  0.03698674  0.96263212  0.79760851    -0.72300
O336        O  0.94349956  0.05320341  0.80615766    -0.72300
O337        O  0.93849324  0.03063504  0.87264955    -0.72300
O338        O  0.05032355  0.97971349  0.86452788    -0.72300
O339        O  0.01926043  0.06236487  0.86934725    -0.72200
O340        O  0.96963067  0.94799762  0.86785555    -0.72400
V341        V  0.99032490  0.00798534  0.80147982     1.35200
V342        V  0.99436000  0.00523824  0.86749091     1.35200
C343        C  0.94425111  0.93654651  0.83747777     0.77000
C344        C  0.04121268  0.07615030  0.83748414     0.77100
C345        C  0.05987527  0.95636422  0.83192184     0.77000
C346        C  0.92473446  0.05624564  0.84304379     0.76900
O347        O  0.06696171  0.86811905  0.01707149    -0.72200
O348        O  0.95577761  0.86504857  0.96631834    -0.72400
O349        O  0.98551894  0.86149734  0.04638728    -0.72300
O350        O  0.03676801  0.87143221  0.93761907    -0.72300
O351        O  0.06031835  0.80273668  0.94278896    -0.72300
O352        O  0.97044818  0.79163675  0.03310548    -0.72300
O353        O  0.96946738  0.79727533  0.94395770    -0.72200
O354        O  0.06200972  0.79734407  0.03278901    -0.72400
V355        V  0.01137472  0.86538342  0.99190734     1.35200
V356        V  0.01564551  0.79679740  0.98819272     1.35200
C357        C  0.08063575  0.83537025  0.03921232     0.77000
C358        C  0.94644530  0.83329192  0.94105207     0.77100
C359        C  0.96313241  0.82707046  0.05541715     0.77000
C360        C  0.06211114  0.84106181  0.92392758     0.76900
C361        C  0.21392388  0.23619066  0.21610675     0.18300
C362        C  0.22806492  0.28095266  0.21200945    -0.19800
C363        C  0.25870677  0.29912329  0.24127590    -0.12100
C364        C  0.27522709  0.27310415  0.27610703     0.20500
C365        C  0.26097889  0.22835689  0.28019480    -0.21500
C366        C  0.23046317  0.21016844  0.25085688    -0.12300
C367        C  0.30759105  0.29120895  0.30833124    -0.16500
C368        C  0.31140619  0.33553953  0.31656727    -0.30300
C369        C  0.18166468  0.21765970  0.18408571    -0.04600
C370        C  0.18099119  0.17361781  0.17384467    -0.41100
H371        H  0.21597019  0.30170388  0.18557339     0.11700
H372        H  0.26980989  0.33326445  0.23583835     0.11300
H373        H  0.27302663  0.20754090  0.30660038     0.10700
H374        H  0.21938428  0.17594302  0.25602809     0.11000
H375        H  0.32759581  0.26721675  0.32625982     0.13700
H376        H  0.28992924  0.35907374  0.29965999     0.12500
H377        H  0.15937310  0.24098274  0.16799843     0.10200
H378        H  0.20537327  0.15138552  0.18854657     0.12200
C379        C  0.72263851  0.27747982  0.27159750     0.18300
C380        C  0.75590431  0.24809715  0.28643820    -0.19800
C381        C  0.77910306  0.22016311  0.25772734    -0.12100
C382        C  0.76944548  0.22043842  0.21292907     0.20500
C383        C  0.73640391  0.25013348  0.19802373    -0.21500
C384        C  0.71320675  0.27812409  0.22677369    -0.12300
C385        C  0.79332535  0.19148375  0.18052594    -0.16500
C386        C  0.82357650  0.15965069  0.19089919    -0.30300
C387        C  0.69796531  0.30529624  0.30424656    -0.04600
C388        C  0.66967656  0.33901193  0.29424434    -0.41100
H389        H  0.76408789  0.24669107  0.32062076     0.11700
H390        H  0.80459693  0.19884344  0.27127076     0.11300
H391        H  0.72817714  0.25149064  0.16384692     0.10700
H392        H  0.68753291  0.29942150  0.21346015     0.11000
H393        H  0.78647441  0.19730921  0.14637266     0.13700
H394        H  0.83090906  0.15268594  0.22458599     0.12500
H395        H  0.70310683  0.29752395  0.33831782     0.10200
H396        H  0.66460183  0.34842891  0.26068939     0.12200
C397        C  0.22647774  0.77196115  0.21422761     0.18300
C398        C  0.21143001  0.73579774  0.23948686    -0.19800
C399        C  0.23920124  0.71489453  0.26975142    -0.12100
C400        C  0.28285076  0.73004274  0.27589708     0.20500
C401        C  0.29834646  0.76554103  0.25005389    -0.21500
C402        C  0.27052090  0.78656413  0.21978407    -0.12300
C403        C  0.31371022  0.70808010  0.30711639    -0.16500
C404        C  0.30029173  0.68250739  0.34065924    -0.30300
C405        C  0.19435450  0.79444896  0.18436294    -0.04600
C406        C  0.20527178  0.82605648  0.15503748    -0.41100
H407        H  0.17788129  0.72360622  0.23583796     0.11700
H408        H  0.22635571  0.68646891  0.28761861     0.11300
H409        H  0.33200226  0.77747258  0.25369338     0.10700
H410        H  0.28375017  0.81461025  0.20172846     0.11000
H411        H  0.34900388  0.71195522  0.30162325     0.13700
H412        H  0.26539138  0.67946560  0.34802635     0.12500
H413        H  0.15965402  0.78558526  0.18746689     0.10200
H414        H  0.23953704  0.83512336  0.15014263     0.12200
C415        C  0.27602434  0.27893995  0.71908301     0.18300
C416        C  0.23695206  0.29570856  0.73788262    -0.19800
C417        C  0.20829737  0.26745030  0.76117600    -0.12100
C418        C  0.21803680  0.22133246  0.76664258     0.20500
C419        C  0.25677629  0.20440008  0.74741790    -0.21500
C420        C  0.28550975  0.23267254  0.72422693    -0.12300
C421        C  0.18882316  0.18968966  0.79156895    -0.16500
C422        C  0.15923382  0.20267924  0.82191345    -0.30300
C423        C  0.30559851  0.31102540  0.69491317    -0.04600
C424        C  0.33901857  0.29869297  0.66832124    -0.41100
H425        H  0.22834939  0.33099201  0.73435792     0.11700
H426        H  0.17836905  0.28190706  0.77429811     0.08900
H427        H  0.26525625  0.16907697  0.75087640     0.10700
H428        H  0.31527181  0.21798422  0.71106395     0.11000
H429        H  0.19357900  0.15376872  0.78646918     0.13700
H430        H  0.15519741  0.23820967  0.82908495     0.12500
H431        H  0.29824811  0.34678548  0.69760614     0.10200
H432        H  0.34635713  0.26328650  0.66365178     0.12200
C433        C  0.77664582  0.77682955  0.21731019     0.18300
C434        C  0.74369744  0.79602218  0.24355778    -0.19800
C435        C  0.71404751  0.76900639  0.26679780    -0.12100
C436        C  0.71659503  0.72163339  0.26461364     0.20500
C437        C  0.74894400  0.70241051  0.23767092    -0.21500
C438        C  0.77858777  0.72944123  0.21437282    -0.12300
C439        C  0.68687643  0.69091062  0.28983716    -0.16500
C440        C  0.65982708  0.70414360  0.32220871    -0.30300
C441        C  0.80706055  0.80778139  0.19313087    -0.04600
C442        C  0.84090277  0.79454531  0.16762099    -0.41100
H443        H  0.74079606  0.83231825  0.24614313     0.11700
H444        H  0.68924270  0.78573572  0.28608897     0.11300
H445        H  0.75161439  0.66610544  0.23488525     0.10700
H446        H  0.80265451  0.71270291  0.19423389     0.11000
H447        H  0.68880586  0.65505832  0.28282082     0.13700
H448        H  0.65753474  0.73939297  0.33098035     0.12500
H449        H  0.80067617  0.84375076  0.19566493     0.10200
H450        H  0.84880933  0.75913732  0.16419249     0.12200
C451        C  0.23035444  0.77660084  0.77933946     0.18300
C452        C  0.27289779  0.76028462  0.78862944    -0.19800
C453        C  0.29554033  0.73352086  0.75861784    -0.12100
C454        C  0.27563315  0.72163238  0.71885322     0.20500
C455        C  0.23304766  0.73795979  0.70962367    -0.21500
C456        C  0.21049966  0.76487569  0.73955844    -0.12300
C457        C  0.29873187  0.69352905  0.68586461    -0.16500
C458        C  0.33135059  0.66442054  0.69597119    -0.30300
C459        C  0.20690360  0.80452233  0.81214578    -0.04600
C460        C  0.17715236  0.83628459  0.80103557    -0.41100
H461        H  0.28892817  0.76884015  0.81896269     0.11700
H462        H  0.32886793  0.72297834  0.76651359     0.11300
H463        H  0.21694012  0.72941275  0.67932565     0.10700
H464        H  0.17721524  0.77571818  0.73174202     0.11000
H465        H  0.28824060  0.69633134  0.65224602     0.13700
H466        H  0.34069081  0.65965081  0.72963465     0.12500
H467        H  0.21464044  0.79932261  0.84620169     0.10200
H468        H  0.17121299  0.84321910  0.76695590     0.12200
C469        C  0.77821750  0.22280067  0.77040024     0.18300
C470        C  0.79460475  0.24405202  0.73297070    -0.19800
C471        C  0.76608531  0.26461791  0.70278225    -0.12100
C472        C  0.71994956  0.26489242  0.70925971     0.20500
C473        C  0.70350697  0.24341963  0.74652990    -0.21500
C474        C  0.73202937  0.22284395  0.77673432    -0.12300
C475        C  0.68784030  0.28751041  0.67880466    -0.16500
C476        C  0.69924581  0.31776568  0.64800824    -0.30300
C477        C  0.81055428  0.20061951  0.80099843    -0.04600
C478        C  0.79945878  0.17402781  0.83490532    -0.41100
H479        H  0.82984408  0.24447481  0.72677768     0.11700
H480        H  0.78062636  0.27973167  0.67436061     0.11300
H481        H  0.66825056  0.24296336  0.75264901     0.10700
H482        H  0.71737858  0.20743881  0.80493238     0.11000
H483        H  0.65281011  0.28149270  0.68399135     0.13700
H484        H  0.73379477  0.32573979  0.64307336     0.12500
H485        H  0.84554092  0.20445583  0.79394546     0.10200
H486        H  0.76496282  0.16858617  0.84251118     0.12200
C487        C  0.77667244  0.78097399  0.76875398     0.18300
C488        C  0.76508634  0.78867535  0.72528802    -0.19800
C489        C  0.74364076  0.75524641  0.70096243    -0.12100
C490        C  0.73273953  0.71338377  0.71977556     0.20500
C491        C  0.74398589  0.70583280  0.76331598    -0.21500
C492        C  0.76526985  0.73929778  0.78767631    -0.12300
C493        C  0.70945677  0.67735659  0.69474144    -0.16500
C494        C  0.67833086  0.68751209  0.66508750    -0.30300
C495        C  0.80079491  0.81663159  0.79354070    -0.04600
C496        C  0.83000873  0.80622159  0.82499921    -0.41100
H497        H  0.77342090  0.82034024  0.70985440     0.11700
H498        H  0.73627114  0.76199137  0.66721873     0.11300
H499        H  0.73562174  0.67417616  0.77874395     0.10700
H500        H  0.77229378  0.73253700  0.82147481     0.11000
H501        H  0.71571037  0.64225152  0.70279192     0.13700
H502        H  0.67039329  0.72288134  0.66006886     0.12500
H503        H  0.79639833  0.85169990  0.78427717     0.10200
H504        H  0.83619971  0.77087882  0.83191438     0.12200
loop_ 
_geom_bond_atom_site_label_1 
_geom_bond_atom_site_label_2 
_geom_bond_distance 
_geom_bond_site_symmetry_2 
_ccdc_geom_bond_type 
O1            V9   1.963       .  S
O1           C11   1.278       .  A
O2            V9   1.963       .  S
O2           C12   1.279       .  A
O3            V9   1.956       .  S
O3           C13   1.278       .  A
O4            V9   1.953       .  S
O4           C14   1.277       .  A
O5           V10   1.852       .  S
O5           C14   1.255       .  A
O6           V10   1.852       .  S
O6           C13   1.255       .  A
O7           V10   1.862       .  S
O7           C12   1.259       .  A
O8           V10   1.861       .  S
O8           C11   1.259       .  A
V9           V10   2.042       .  T
C11          C92   1.502       .  S
C12         C183   1.503       .  S
C13         C114   1.490       .  S
C14         C140   1.486       .  S
O15          V23   1.857       .  S
O15          C25   1.257       .  A
O16          V23   1.855       .  S
O16          C26   1.256       .  A
O17          V23   1.858       .  S
O17          C27   1.257       .  A
O18          V23   1.860       .  S
O18          C28   1.258       .  A
O19          V24   1.962       .  S
O19          C28   1.278       .  A
O20          V24   1.963       .  S
O20          C27   1.278       .  A
O21          V24   1.957       .  S
O21          C26   1.277       .  A
O22          V24   1.957       .  S
O22          C25   1.278       .  A
V23          V24   2.043       .  T
C25         C111   1.494       .  S
C26         C159   1.493       .  S
C27         C231   1.500       .  S
C28          C87   1.500       .  S
O29          V37   1.850       .  S
O29          C39   1.255       .  A
O30          V37   1.850       .  S
O30          C40   1.254       .  A
O31          V37   1.862       .  S
O31          C41   1.259       .  A
O32          V37   1.857       .  S
O32          C42   1.257       .  A
O33          V38   1.957       .  S
O33          C42   1.277       .  A
O34          V38   1.954       .  S
O34          C41   1.276       .  A
O35          V38   1.946       .  S
O35          C40   1.276       .  A
O36          V38   1.955       .  S
O36          C39   1.276       .  A
V37          V38   2.044       .  T
C39         C212   1.489       .  S
C40          C90   1.479       .  S
C41         C135   1.494       .  S
C42         C164   1.495       .  S
O43          V51   1.852       .  S
O43          C53   1.255       .  A
O44          V51   1.854       .  S
O44          C54   1.255       .  A
O45          V51   1.859       .  S
O45          C55   1.258       .  A
O46          V51   1.856       .  S
O46          C56   1.257       .  A
O47          V52   1.955       .  S
O47          C56   1.277       .  A
O48          V52   1.953       .  S
O48          C55   1.276       .  A
O49          V52   1.954       .  S
O49          C54   1.278       .  A
O50          V52   1.960       .  S
O50          C53   1.278       .  A
V51          V52   2.041       .  T
C53         C138   1.493       .  S
C54         C258   1.487       .  S
C55         C210   1.491       .  S
C56         C186   1.490       .  S
O57          V65   1.961       .  S
O57          C67   1.278       .  A
O58          V65   1.960       .  S
O58          C68   1.278       .  A
O59          V65   1.964       .  S
O59          C69   1.278       .  A
O60          V65   1.965       .  S
O60          C70   1.279       .  A
O61          V66   1.860       .  S
O61          C70   1.258       .  A
O62          V66   1.858       .  S
O62          C69   1.258       .  A
O63          V66   1.859       .  S
O63          C68   1.257       .  A
O64          V66   1.859       .  S
O64          C67   1.257       .  A
V65          V66   2.042       .  T
C67         C234   1.499       .  S
C68         C188   1.498       .  S
C69         C255   1.501       .  S
C70         C116   1.504       .  S
O71          V79   1.851       .  S
O71          C81   1.255       .  A
O72          V79   1.854       .  S
O72          C82   1.256       .  A
O73          V79   1.854       .  S
O73          C83   1.257       .  A
O74          V79   1.857       .  S
O74          C84   1.257       .  A
O75          V80   1.947       .  S
O75          C84   1.275       .  A
O76          V80   1.957       .  S
O76          C83   1.276       .  A
O77          V80   1.954       .  S
O77          C82   1.277       .  A
O78          V80   1.952       .  S
O78          C81   1.277       .  A
V79          V80   2.044       .  T
C81         C207   1.484       .  S
C82         C236   1.489       .  S
C83         C162   1.493       .  S
C84         C260   1.484       .  S
C85          C86   1.568       .  S
C85          C91   1.570       .  S
C85          C89   1.556       .  S
C85         C494   1.520       .  S
C86          H93   1.085       .  S
C86          C87   1.372       .  D
C87          C88   1.529       .  S
C88          C92   1.528       .  S
C88          C90   1.524       .  S
C88          H94   1.103       .  S
C89          H95   1.086       .  S
C89          C90   1.352       .  D
C91          H96   1.085       .  S
C91          C92   1.374       .  D
C97          C98   1.567       .  S
C97         C103   1.567       .  S
C97         C101   1.558       .  S
C97         C496   1.518       .  S
C98         H105   1.085       .  S
C98          C99   1.371       .  D
C99         C343   1.498       .  S
C99         C100   1.530       .  S
C100        C104   1.528       .  S
C100        C102   1.524       .  S
C100        H106   1.103       .  S
C101        H107   1.086       .  S
C101        C102   1.354       .  D
C102        C358   1.484       .  S
C103        H108   1.085       .  S
C103        C104   1.371       .  D
C104        C331   1.497       .  S
C109        C110   1.566       .  S
C109        C115   1.570       .  S
C109        C113   1.562       .  S
C109        C476   1.526       .  S
C110        H117   1.085       .  S
C110        C111   1.363       .  D
C111        C112   1.526       .  S
C112        C116   1.529       .  S
C112        C114   1.528       .  S
C112        H118   1.103       .  S
C113        H119   1.085       .  S
C113        C114   1.363       .  D
C115        H120   1.085       .  S
C115        C116   1.374       .  D
C121        C122   1.570       .  S
C121        C127   1.567       .  S
C121        C125   1.562       .  S
C121        C478   1.527       .  S
C122        H129   1.085       .  S
C122        C123   1.373       .  D
C123        C304   1.505       .  S
C123        C124   1.530       .  S
C124        C128   1.526       .  S
C124        C126   1.527       .  S
C124        H130   1.102       .  S
C125        H131   1.085       .  S
C125        C126   1.363       .  D
C126        C346   1.491       .  S
C127        H132   1.085       .  S
C127        C128   1.365       .  D
C128        C329   1.495       .  S
C133        C134   1.564       .  S
C133        C139   1.560       .  S
C133        C137   1.565       .  S
C133        C458   1.513       .  S
C134        H141   1.085       .  S
C134        C135   1.366       .  D
C135        C136   1.525       .  S
C136        C140   1.527       .  S
C136        C138   1.530       .  S
C136        H142   1.103       .  S
C137        H143   1.085       .  S
C137        C138   1.369       .  D
C139        H144   1.086       .  S
C139        C140   1.359       .  D
C145        C146   1.568       .  S
C145        C151   1.561       .  S
C145        C149   1.563       .  S
C145        C460   1.513       .  S
C146        H153   1.085       .  S
C146        C147   1.371       .  D
C147        C288   1.495       .  S
C147        C148   1.528       .  S
C148        C152   1.524       .  S
C148        C150   1.528       .  S
C148        H154   1.102       .  S
C149        H155   1.085       .  S
C149        C150   1.365       .  D
C150        C360   1.493       .  S
C151        H156   1.086       .  S
C151        C152   1.359       .  D
C152        C345   1.488       .  S
C157        C158   1.564       .  S
C157        C163   1.567       .  S
C157        C161   1.566       .  S
C157        C440   1.520       .  S
C158        H165   1.085       .  S
C158        C159   1.364       .  D
C159        C160   1.526       .  S
C160        C164   1.525       .  S
C160        C162   1.526       .  S
C160        H166   1.101       .  S
C161        H167   1.085       .  S
C161        C162   1.368       .  D
C163        H168   1.085       .  S
C163        C164   1.366       .  D
C169        C170   1.563       .  S
C169        C175   1.567       .  S
C169        C173   1.566       .  S
C169        C442   1.521       .  S
C170        H177   1.085       .  S
C170        C171   1.363       .  D
C171        C330   1.493       .  S
C171        C172   1.527       .  S
C172        C176   1.529       .  S
C172        C174   1.525       .  S
C172        H178   1.102       .  S
C173        H179   1.085       .  S
C173        C174   1.366       .  D
C174        C359   1.495       .  S
C175        H180   1.085       .  S
C175        C176   1.370       .  D
C176        C316   1.495       .  S
C181        C182   1.569       .  S
C181        C187   1.568       .  S
C181        C185   1.562       .  S
C181        C424   1.528       .  S
C182        H189   1.085       .  S
C182        C183   1.372       .  D
C183        C184   1.528       .  S
C184        C188   1.526       .  S
C184        C186   1.527       .  S
C184        H190   1.103       .  S
C185        H191   1.085       .  S
C185        C186   1.364       .  D
C187        H192   1.085       .  S
C187        C188   1.366       .  D
C193        C194   1.568       .  S
C193        C199   1.568       .  S
C193        C197   1.563       .  S
C193        C422   1.527       .  S
C194        H201   1.085       .  S
C194        C195   1.366       .  D
C195        C302   1.498       .  S
C195        C196   1.526       .  S
C196        C200   1.529       .  S
C196        C198   1.526       .  S
C196        H202   1.102       .  S
C197        H203   1.085       .  S
C197        C198   1.365       .  D
C198        C290   1.492       .  S
C199        H204   1.085       .  S
C199        C200   1.370       .  D
C200        C344   1.500       .  S
C205        C206   1.559       .  S
C205        C211   1.564       .  S
C205        C209   1.564       .  S
C205        C404   1.509       .  S
C206        H213   1.086       .  S
C206        C207   1.358       .  D
C207        C208   1.526       .  S
C208        C212   1.528       .  S
C208        C210   1.525       .  S
C208        H214   1.103       .  S
C209        H215   1.085       .  S
C209        C210   1.364       .  D
C211        H216   1.085       .  S
C211        C212   1.368       .  D
C217        C218   1.565       .  S
C217        C223   1.560       .  S
C217        C221   1.567       .  S
C217        C406   1.512       .  S
C218        H225   1.085       .  S
C218        C219   1.364       .  D
C219        C317   1.493       .  S
C219        C220   1.525       .  S
C220        C224   1.525       .  S
C220        C222   1.528       .  S
C220        H226   1.102       .  S
C221        H227   1.085       .  S
C221        C222   1.369       .  D
C222        C357   1.494       .  S
C223        H228   1.085       .  S
C223        C224   1.360       .  D
C224        C289   1.488       .  S
C229        C230   1.568       .  S
C229        C235   1.563       .  S
C229        C233   1.566       .  S
C229        C388   1.523       .  S
C230        H237   1.085       .  S
C230        C231   1.371       .  D
C231        C232   1.529       .  S
C232        C236   1.526       .  S
C232        C234   1.528       .  S
C232        H238   1.102       .  S
C233        H239   1.085       .  S
C233        C234   1.368       .  D
C235        H240   1.086       .  S
C235        C236   1.361       .  D
C241        C242   1.563       .  S
C241        C247   1.569       .  S
C241        C245   1.565       .  S
C241        C386   1.523       .  S
C242        H249   1.086       .  S
C242        C243   1.360       .  D
C243        C318   1.491       .  S
C243        C244   1.525       .  S
C244        C248   1.528       .  S
C244        C246   1.527       .  S
C244        H250   1.102       .  S
C245        H251   1.085       .  S
C245        C246   1.366       .  D
C246        C301   1.496       .  S
C247        H252   1.085       .  S
C247        C248   1.373       .  D
C248        C332   1.501       .  S
C253        C254   1.576       .  S
C253        C259   1.557       .  S
C253        C257   1.558       .  S
C253        C368   1.515       .  S
C254        H261   1.083       .  S
C254        C255   1.375       .  D
C255        C256   1.529       .  S
C256        C260   1.524       .  S
C256        C258   1.527       .  S
C256        H262   1.104       .  S
C257        H263   1.086       .  S
C257        C258   1.360       .  D
C259        H264   1.086       .  S
C259        C260   1.359       .  D
C265        C266   1.557       .  S
C265        C271   1.576       .  S
C265        C269   1.559       .  S
C265        C370   1.515       .  S
C266        H273   1.086       .  S
C266        C267   1.358       .  D
C267        C315   1.486       .  S
C267        C268   1.526       .  S
C268        C272   1.530       .  S
C268        C270   1.526       .  S
C268        H274   1.103       .  S
C269        H275   1.086       .  S
C269        C270   1.361       .  D
C270        C287   1.488       .  S
C271        H276   1.083       .  S
C271        C272   1.375       .  D
C272        C303   1.503       .  S
O277        V285   1.855   1_554  S
O277        C287   1.256       .  A
O278        V285   1.853   1_565  S
O278        C288   1.256       .  A
O279        V285   1.853   1_564  S
O279        C289   1.256       .  A
O280        V285   1.857       .  S
O280        C290   1.257       .  A
O281        V286   1.953       .  S
O281        C290   1.276       .  A
O282        V286   1.952   1_564  S
O282        C289   1.277       .  A
O283        V286   1.960   1_565  S
O283        C288   1.277       .  A
O284        V286   1.952   1_554  S
O284        C287   1.276       .  A
V285        V286   2.046       .  T
O291        V299   1.857       .  S
O291        C301   1.257       .  A
O292        V299   1.859   1_456  S
O292        C302   1.257       .  A
O293        V299   1.858   1_455  S
O293        C303   1.257       .  A
O294        V299   1.859   1_556  S
O294        C304   1.257       .  A
O295        V300   1.967   1_556  S
O295        C304   1.280       .  A
O296        V300   1.967   1_455  S
O296        C303   1.279       .  A
O297        V300   1.960   1_456  S
O297        C302   1.278       .  A
O298        V300   1.959       .  S
O298        C301   1.277       .  A
V299        V300   2.040       .  T
O305        V313   1.952   1_545  S
O305        C315   1.277       .  A
O306        V313   1.961   1_655  S
O306        C316   1.278       .  A
O307        V313   1.956       .  S
O307        C317   1.276       .  A
O308        V313   1.955   1_645  S
O308        C318   1.278       .  A
O309        V314   1.854   1_645  S
O309        C318   1.256       .  A
O310        V314   1.856       .  S
O310        C317   1.257       .  A
O311        V314   1.852   1_655  S
O311        C316   1.256       .  A
O312        V314   1.855   1_545  S
O312        C315   1.256       .  A
V313        V314   2.043       .  T
O319        V327   1.857   1_546  S
O319        C329   1.256       .  A
O320        V327   1.856       .  S
O320        C330   1.256       .  A
O321        V327   1.859   1_556  S
O321        C331   1.258       .  A
O322        V327   1.858   1_545  S
O322        C332   1.258       .  A
O323        V328   1.962   1_545  S
O323        C332   1.278       .  A
O324        V328   1.959   1_556  S
O324        C331   1.277       .  A
O325        V328   1.957       .  S
O325        C330   1.278       .  A
O326        V328   1.958   1_546  S
O326        C329   1.278       .  A
V327        V328   2.044       .  T
O333        V341   1.962   1_565  S
O333        C343   1.279       .  A
O334        V341   1.964   1_455  S
O334        C344   1.279       .  A
O335        V341   1.952   1_465  S
O335        C345   1.276       .  A
O336        V341   1.954       .  S
O336        C346   1.277       .  A
O337        V342   1.856       .  S
O337        C346   1.257       .  A
O338        V342   1.855   1_465  S
O338        C345   1.256       .  A
O339        V342   1.857   1_455  S
O339        C344   1.257       .  A
O340        V342   1.857   1_565  S
O340        C343   1.257       .  A
V341        V342   2.042       .  T
O347        V355   1.851   1_554  S
O347        C357   1.255       .  A
O348        V355   1.855   1_655  S
O348        C358   1.256       .  A
O349        V355   1.860   1_654  S
O349        C359   1.258       .  A
O350        V355   1.854       .  S
O350        C360   1.256       .  A
O351        V356   1.958       .  S
O351        C360   1.278       .  A
O352        V356   1.956   1_654  S
O352        C359   1.277       .  A
O353        V356   1.949   1_655  S
O353        C358   1.277       .  A
O354        V356   1.961   1_554  S
O354        C357   1.277       .  A
V355        V356   2.042       .  T
C361        C369   1.492       .  S
C361        C362   1.402       .  A
C361        C366   1.410       .  A
C362        C363   1.401       .  A
C362        H371   1.083       .  S
C363        C364   1.412       .  A
C363        H372   1.081       .  S
C364        C367   1.494       .  S
C364        C365   1.402       .  A
C365        C366   1.400       .  A
C365        H373   1.083       .  S
C366        H374   1.082       .  S
C367        H375   1.083       .  S
C367        C368   1.345       .  D
C368        H376   1.084       .  S
C369        H377   1.084       .  S
C369        C370   1.345       .  D
C370        H378   1.086       .  S
C379        C387   1.503       .  S
C379        C380   1.405       .  A
C379        C384   1.411       .  A
C380        C381   1.403       .  A
C380        H389   1.083       .  S
C381        C382   1.412       .  A
C381        H390   1.079       .  S
C382        C385   1.505       .  S
C382        C383   1.406       .  A
C383        C384   1.405       .  A
C383        H391   1.083       .  S
C384        H392   1.080       .  S
C385        H393   1.087       .  S
C385        C386   1.351       .  D
C386        H394   1.082       .  S
C387        H395   1.087       .  S
C387        C388   1.349       .  D
C388        H396   1.082       .  S
C397        C405   1.492       .  S
C397        C398   1.403       .  A
C397        C402   1.411       .  A
C398        C399   1.397       .  A
C398        H407   1.083       .  S
C399        C400   1.407       .  A
C399        H408   1.081       .  S
C400        C403   1.487       .  S
C400        C401   1.403       .  A
C401        C402   1.400       .  A
C401        H409   1.084       .  S
C402        H410   1.079       .  S
C403        H411   1.088       .  S
C403        C404   1.347       .  D
C404        H412   1.084       .  S
C405        H413   1.087       .  S
C405        C406   1.345       .  D
C406        H414   1.082       .  S
C415        C423   1.506       .  S
C415        C416   1.408       .  A
C415        C420   1.410       .  A
C416        C417   1.406       .  A
C416        H425   1.083       .  S
C417        C418   1.409       .  A
C417        H426   1.081       .  S
C418        C421   1.503       .  S
C418        C419   1.407       .  A
C419        C420   1.406       .  A
C419        H427   1.083       .  S
C420        H428   1.080       .  S
C421        H429   1.087       .  S
C421        C422   1.353       .  D
C422        H430   1.084       .  S
C423        H431   1.087       .  S
C423        C424   1.354       .  D
C424        H432   1.083       .  S
C433        C441   1.501       .  S
C433        C434   1.406       .  A
C433        C438   1.410       .  A
C434        C435   1.402       .  A
C434        H443   1.083       .  S
C435        C436   1.409       .  A
C435        H444   1.080       .  S
C436        C439   1.500       .  S
C436        C437   1.406       .  A
C437        C438   1.404       .  A
C437        H445   1.083       .  S
C438        H446   1.079       .  S
C439        H447   1.087       .  S
C439        C440   1.352       .  D
C440        H448   1.083       .  S
C441        H449   1.087       .  S
C441        C442   1.351       .  D
C442        H450   1.082       .  S
C451        C459   1.490       .  S
C451        C452   1.402       .  A
C451        C456   1.409       .  A
C452        C453   1.400       .  A
C452        H461   1.083       .  S
C453        C454   1.410       .  A
C453        H462   1.081       .  S
C454        C457   1.491       .  S
C454        C455   1.403       .  A
C455        C456   1.400       .  A
C455        H463   1.083       .  S
C456        H464   1.082       .  S
C457        H465   1.087       .  S
C457        C458   1.345       .  D
C458        H466   1.084       .  S
C459        H467   1.086       .  S
C459        C460   1.345       .  D
C460        H468   1.085       .  S
C469        C477   1.506       .  S
C469        C470   1.407       .  A
C469        C474   1.411       .  A
C470        C471   1.405       .  A
C470        H479   1.083       .  S
C471        C472   1.410       .  A
C471        H480   1.080       .  S
C472        C475   1.505       .  S
C472        C473   1.407       .  A
C473        C474   1.405       .  A
C473        H481   1.083       .  S
C474        H482   1.079       .  S
C475        H483   1.087       .  S
C475        C476   1.353       .  D
C476        H484   1.083       .  S
C477        H485   1.087       .  S
C477        C478   1.353       .  D
C478        H486   1.082       .  S
C487        C495   1.496       .  S
C487        C488   1.403       .  A
C487        C492   1.411       .  A
C488        C489   1.403       .  A
C488        H497   1.083       .  S
C489        C490   1.411       .  A
C489        H498   1.082       .  S
C490        C493   1.495       .  S
C490        C491   1.402       .  A
C491        C492   1.402       .  A
C491        H499   1.083       .  S
C492        H500   1.082       .  S
C493        H501   1.086       .  S
C493        C494   1.344       .  D
C494        H502   1.087       .  S
C495        H503   1.086       .  S
C495        C496   1.345       .  D
C496        H504   1.086       .  S
