geometry optimzed in LAMMPS
_audit_creation_date              2020-12-01 
_audit_creation_method            'lammps2cif' 
_symmetry_space_group_name_H-M    'P1' 
_symmetry_Int_Tables_number       1 
_symmetry_cell_setting            triclinic 
loop_ 
_symmetry_equiv_pos_as_xyz 
  x,y,z 
_cell_length_a                    52.35346463 
_cell_length_b                    52.352789551843564 
_cell_length_c                    34.10926130287538 
_cell_angle_alpha                 90.00079516805387 
_cell_angle_beta                  90.00077807035561 
_cell_angle_gamma                 120.04238955720295 
loop_ 
_atom_site_label 
_atom_site_type_symbol 
_atom_site_fract_x 
_atom_site_fract_y 
_atom_site_fract_z 
_atom_site_charge 
C1          C  0.23995940  0.37148914  0.16068536     0.79300
N2          N  0.24065378  0.39436366  0.14105449    -0.79000
C3          C  0.24550058  0.39743091  0.10178803     0.81700
N4          N  0.24951173  0.37730637  0.08165557    -0.79000
C5          C  0.24793440  0.35378920  0.10081777     0.81800
N6          N  0.24319976  0.35100374  0.14020119    -0.80700
C7          C  0.24041079  0.37201633  0.33070280     0.79300
N8          N  0.24230730  0.39526607  0.35102265    -0.79000
C9          C  0.24707718  0.39746616  0.39045935     0.81700
N10         N  0.24979943  0.37621767  0.40976724    -0.79000
C11         C  0.24701692  0.35253632  0.38974263     0.81800
N12         N  0.24233968  0.35059715  0.35050309    -0.80700
C13         C  0.09575361  0.37158365  0.33071974     0.79300
N14         N  0.07240424  0.35032604  0.35102178    -0.79000
C15         C  0.07021600  0.35283938  0.39044639     0.81700
N16         N  0.09156883  0.37671964  0.40980896    -0.79000
C17         C  0.11534161  0.39756089  0.38982341     0.81800
N18         N  0.11729842  0.39484464  0.35056080    -0.80700
C19         C  0.09602167  0.37159152  0.16066964     0.79300
N20         N  0.07309798  0.34946629  0.14100613    -0.79000
C21         C  0.07016753  0.35116775  0.10171317     0.81700
N22         N  0.09044419  0.37520632  0.08155908    -0.79000
C23         C  0.11398285  0.39711080  0.10075965     0.81800
N24         N  0.11668262  0.39521399  0.14017701    -0.80700
C25         C  0.09658678  0.22742236  0.16066730     0.79300
N26         N  0.07293991  0.22449547  0.14029062    -0.79000
C27         C  0.07095347  0.21990846  0.10086751     0.81700
N28         N  0.09280443  0.21827349  0.08154726    -0.79000
C29         C  0.11688044  0.22203269  0.10157795     0.81800
N30         N  0.11865503  0.22663245  0.14088043    -0.80700
C31         C  0.09661699  0.22719150  0.33074053     0.79300
N32         N  0.11786191  0.22517297  0.35111968    -0.79000
C33         C  0.11542365  0.22072648  0.39057978     0.81700
N34         N  0.09161464  0.21834514  0.40991661    -0.79000
C35         C  0.07077302  0.22119432  0.38985251     0.81800
N36         N  0.07341997  0.22564075  0.35053771    -0.80700
C37         C  0.35869601  0.10854569  0.33066546     0.79300
N38         N  0.33753017  0.08510752  0.35094420    -0.79000
C39         C  0.34015487  0.08283157  0.39033282     0.81700
N40         N  0.36405333  0.10418225  0.40966863    -0.79000
C41         C  0.38479992  0.12803349  0.38970805     0.81800
N42         N  0.38197450  0.13007459  0.35049232    -0.80700
C43         C  0.35871209  0.10894908  0.16066349     0.79300
N44         N  0.33665520  0.08595623  0.14101863    -0.79000
C45         C  0.33846578  0.08290456  0.10177546     0.81700
N46         N  0.36254455  0.10313110  0.08164849    -0.79000
C47         C  0.38438685  0.12673510  0.10081783     0.81800
N48         N  0.38238738  0.12955560  0.14019199    -0.80700
C49         C  0.35898565  0.25235513  0.16072765     0.79300
N50         N  0.33843298  0.25555074  0.14032986    -0.79000
C51         C  0.34123380  0.26043374  0.10096476     0.81700
N52         N  0.36479504  0.26215172  0.08174443    -0.79000
C53         C  0.38496473  0.25816913  0.10179374     0.81800
N54         N  0.38191028  0.25322903  0.14102273    -0.80700
C55         C  0.35937701  0.25258408  0.33073099     0.79300
N56         N  0.38271701  0.25473274  0.35107536    -0.79000
C57         C  0.38490584  0.25956103  0.39047801     0.81700
N58         N  0.36358997  0.26216897  0.40975882    -0.79000
C59         C  0.33983545  0.25918851  0.38972583     0.81800
N60         N  0.33786916  0.25438787  0.35049937    -0.80700
C61         C  0.21533891  0.10955065  0.33074691     0.79300
N62         N  0.21369675  0.08630163  0.35052285    -0.79000
C63         C  0.20891972  0.08348114  0.38977975     0.81700
N64         N  0.20583338  0.10419858  0.40980241    -0.79000
C65         C  0.20828735  0.12804886  0.39049841     0.81800
N66         N  0.21305414  0.13065265  0.35110373    -0.80700
C67         C  0.21553146  0.10953628  0.16068697     0.79300
N68         N  0.21258590  0.08587414  0.14032680    -0.79000
C69         C  0.20770333  0.08373928  0.10095836     0.81700
N70         N  0.20580057  0.10545444  0.08167739    -0.79000
C71         C  0.20956256  0.12953651  0.10168348     0.81800
N72         N  0.21444382  0.13145478  0.14092545    -0.80700
C73         C  0.24974343  0.33049932  0.07919552     0.41500
N74         N  0.24345603  0.28793141  0.06495097     0.00400
C75         C  0.28473701  0.24369209  0.39676122    -0.07500
H76         H  0.21702245  0.28767011  0.37173612     0.05900
C77         C  0.13729552  0.20462988  0.44894394    -0.07800
Co78       Co  0.27554109  0.28800829  0.49233671     0.74200
N79         N  0.23877912  0.28309628  0.42266930    -0.27000
Co80       Co  0.22622043  0.23877228  0.42375400     0.74100
C81         C  0.13913203  0.21973362  0.41214701     0.41600
N82         N  0.16771324  0.21275832  0.04238053     0.00000
N83         N  0.18184973  0.22639905  0.42619682     0.00100
N84         N  0.31680507  0.27485002  0.44222122    -0.47800
H85         H  0.27835754  0.35160105  0.02425799     0.05900
N86         N  0.25716567  0.30211077  0.44868440     0.00400
N87         N  0.21374325  0.19437604  0.42614467     0.00200
C88         C  0.20709844  0.15167074  0.41203703     0.41800
N89         N  0.18668973  0.23112328  0.06843146    -0.26500
C90         C  0.31998022  0.27747428  0.04252268    -0.07400
N91         N  0.23703515  0.30230946  0.09144758    -0.47600
N92         N  0.21993952  0.17983818  0.39961163    -0.47800
C93         C  0.31793882  0.26226512  0.07937490     0.41500
N94         N  0.28954372  0.26950781  0.44870005     0.00400
N95         N  0.21849721  0.19924475  0.06846534    -0.26500
N96         N  0.26013041  0.30504880  0.03620201    -0.27000
N97         N  0.20014756  0.18025718  0.04240993     0.00000
H98         H  0.23996863  0.19455785  0.11964934     0.05900
H99         H  0.17856702  0.13080383  0.46706023     0.06000
N100        N  0.27049752  0.25117956  0.42266430    -0.27000
N101        N  0.16483314  0.20974854  0.45502848    -0.26600
N102        N  0.27537090  0.25594803  0.06502696     0.00400
C103        C  0.24691317  0.32784359  0.40994613     0.41800
C104        C  0.17229673  0.23839436  0.09440823    -0.07900
N105        N  0.19711646  0.17735396  0.45498751    -0.26600
H106        H  0.11828941  0.19116413  0.46713275     0.06000
N107        N  0.26262264  0.32941342  0.44220964    -0.47800
H108        H  0.18196101  0.25262110  0.11956978     0.05900
C109        C  0.21009521  0.15441099  0.08137031     0.41600
C110        C  0.26501917  0.33252943  0.04240542    -0.07400
Co111      Co  0.23101090  0.24357042  0.06733314     0.73800
N112        N  0.14037633  0.20714520  0.04891739    -0.47600
C113        C  0.31517143  0.25912668  0.40993935     0.41900
N114        N  0.28973965  0.24956949  0.09159848    -0.47600
Co115      Co  0.18179846  0.19436860  0.49881374     0.73900
C116        C  0.19200166  0.14981531  0.44886305    -0.07900
C117        C  0.23137118  0.29740366  0.39677437    -0.07400
N118        N  0.29250488  0.27257310  0.03625794    -0.27000
N119        N  0.16729399  0.23258988  0.39968122    -0.47700
H120        H  0.27496368  0.22936460  0.37171307     0.05900
C121        C  0.22574419  0.18487265  0.09449161    -0.07900
Cl122      Cl  0.22865487  0.24118772  0.49554219    -0.50900
C123        C  0.14183614  0.22274177  0.08124296     0.41700
H124        H  0.33906243  0.29080050  0.02438589     0.05900
N125        N  0.19452530  0.15292012  0.04899515    -0.47600
C126        C  0.04545912  0.32909963  0.41200301     0.41500
N127        N  0.50962835  0.28625934  0.42629916     0.00400
C128        C  0.42414800  0.24200045  0.09463783    -0.07500
H129        H  0.03576301  0.28606755  0.11975042     0.05900
C130        C  0.03265542  0.20298190  0.04254359    -0.07800
Co131      Co  0.47760858  0.28610060  0.49898992     0.74200
N132        N  0.50951964  0.28126828  0.06859461    -0.27000
Co133      Co  0.47769807  0.23692673  0.06744965     0.74100
C134        C  0.04588641  0.21821002  0.07934314     0.41600
N135        N  0.51028147  0.21109156  0.44888102     0.00000
N136        N  0.50967597  0.22457573  0.06509342     0.00100
N137        N  0.42342472  0.27323258  0.04919508    -0.47800
H138        H  0.03769987  0.34985901  0.46704790     0.05900
N139        N  0.51007673  0.30022525  0.04256904     0.00400
N140        N  0.44575302  0.19258652  0.06500682     0.00200
C141        C  0.40942960  0.15004143  0.07918723     0.41800
N142        N  0.50962091  0.22945743  0.42287954    -0.26500
C143        C  0.42282479  0.27576761  0.44898100    -0.07400
N144        N  0.03025908  0.30089861  0.39964961    -0.47600
N145        N  0.42492635  0.17821279  0.09147781    -0.47800
C146        C  0.40966503  0.26071481  0.41209173     0.41500
N147        N  0.44515192  0.26765040  0.04258776     0.00400
N148        N  0.44593745  0.19749936  0.42281752    -0.26500
N149        N  0.50995634  0.30324099  0.45513962    -0.27000
N150        N  0.44529316  0.17846853  0.44879218     0.00000
H151        H  0.41960815  0.19295121  0.37188884     0.05900
H152        H  0.41691585  0.12893750  0.02425241     0.06000
N153        N  0.44580067  0.24930623  0.06861740    -0.27000
N154        N  0.51011996  0.20792548  0.03633158    -0.26600
N155        N  0.44571476  0.25411722  0.42631641     0.00400
C156        C  0.04588451  0.32617477  0.08148339     0.41800
C157        C  0.03135802  0.23693110  0.39698023    -0.07900
N158        N  0.44528946  0.17547968  0.03624706    -0.26600
H159        H  0.03834956  0.18962664  0.02439556     0.06000
N160        N  0.03173705  0.32759254  0.04915496    -0.47800
H161        H  0.03593321  0.25125073  0.37192487     0.05900
C162        C  0.40931952  0.15274912  0.41000207     0.41600
C163        C  0.03224025  0.33085429  0.44890826    -0.07400
Co164      Co  0.47773412  0.24182593  0.42392596     0.73800
N165        N  0.03216087  0.20570892  0.44239003    -0.47600
C166        C  0.40931799  0.25762533  0.08153343     0.41900
N167        N  0.42502811  0.24792615  0.39970330    -0.47600
Co168      Co  0.47774586  0.19253820  0.49243866     0.73900
C169        C  0.42266798  0.14800316  0.04241208    -0.07900
C170        C  0.03116688  0.29570644  0.09460103    -0.07400
N171        N  0.44525916  0.27069575  0.45516748    -0.27000
N172        N  0.03044890  0.23094320  0.09163024    -0.47700
H173        H  0.41960869  0.22777008  0.11978545     0.05900
C174        C  0.42421193  0.18320471  0.39690959    -0.07900
Cl175      Cl  0.47771267  0.23934718  0.49568552    -0.50900
C176        C  0.04629352  0.22144316  0.41013412     0.41700
H177        H  0.41722136  0.28918526  0.46714447     0.05900
N178        N  0.42345269  0.15116193  0.44225489    -0.47600
C179        C  0.24817191  0.42221616  0.41209629     0.41500
N180        N  0.24151097  0.45822999  0.42639814     0.00400
C181        C  0.28309086  0.04372768  0.09470751    -0.07500
H182        H  0.21510919  0.43211084  0.11980747     0.05900
C183        C  0.13540723  0.43542019  0.04240931    -0.07800
Co184      Co  0.27355523  0.49019701  0.49905485     0.74200
N185        N  0.23670685  0.45834973  0.06869055    -0.27000
Co186      Co  0.22435842  0.49027191  0.06754343     0.74100
C187        C  0.13737391  0.42209680  0.07913872     0.41600
N188        N  0.16588974  0.45799177  0.44891006     0.00000
N189        N  0.17998413  0.45837132  0.06505618     0.00100
N190        N  0.31501230  0.04441006  0.04923007    -0.47800
H191        H  0.27673281  0.42985281  0.46708257     0.05900
N192        N  0.25506954  0.45771607  0.04267451     0.00400
N193        N  0.21209547  0.02231048  0.06520892     0.00200
C194        C  0.20591826  0.05863762  0.07943292     0.41800
N195        N  0.18489794  0.45854089  0.42297415    -0.26500
C196        C  0.31829455  0.04484619  0.44885502    -0.07400
N197        N  0.23533030  0.43754807  0.39976686    -0.47600
N198        N  0.21854093  0.04310442  0.09173914    -0.47800
C199        C  0.31649257  0.05800297  0.41190384     0.41500
N200        N  0.28766973  0.02268223  0.04266048     0.00400
N201        N  0.21695435  0.02221942  0.42293652    -0.26500
N202        N  0.25814436  0.45781870  0.45520819    -0.27000
N203        N  0.19864353  0.02297375  0.44894441     0.00000
H204        H  0.23873942  0.04841691  0.37190200     0.05900
H205        H  0.17740475  0.05123214  0.02444641     0.06000
N206        N  0.26869768  0.02207030  0.06870690    -0.27000
N207        N  0.16291479  0.45800105  0.03630747    -0.26600
N208        N  0.27368636  0.02215383  0.42631085     0.00400
C209        C  0.24496704  0.42181636  0.08156942     0.41800
C210        C  0.17055454  0.43681605  0.39708240    -0.07900
N211        N  0.19550720  0.02283885  0.03642393    -0.26600
H212        H  0.11636872  0.42974424  0.02423068     0.06000
N213        N  0.26060829  0.43595550  0.04925848    -0.47800
H214        H  0.18026970  0.43216215  0.37207202     0.05900
C215        C  0.20903161  0.05893252  0.41007364     0.41600
C216        C  0.26326163  0.43541553  0.44896702    -0.07400
Co217      Co  0.22924729  0.49028103  0.42402107     0.73800
N218        N  0.13855078  0.43621833  0.44236119    -0.47600
C219        C  0.31354688  0.05852596  0.08157231     0.41900
N220        N  0.28828204  0.04275751  0.39961338    -0.47600
Co221      Co  0.18004407  0.49046543  0.49252902     0.73900
C222        C  0.19068220  0.04545211  0.04261965    -0.07900
C223        C  0.22936167  0.43666520  0.09468165    -0.07400
N224        N  0.29069510  0.02254134  0.45515446    -0.27000
N225        N  0.16554420  0.43751709  0.09147487    -0.47700
H226        H  0.27342100  0.04830735  0.11983719     0.05900
C227        C  0.22445016  0.04391842  0.39697186    -0.07900
Cl228      Cl  0.22680529  0.49031732  0.49577780    -0.50900
C229        C  0.14009349  0.42203120  0.41013789     0.41700
H230        H  0.33732021  0.05036226  0.46697922     0.05900
N231        N  0.19331654  0.04488391  0.44238579    -0.47600
C232        C  0.21959226  0.13470142  0.26621399    -0.14300
C233        C  0.21826769  0.11100555  0.28730289     0.07900
C234        C  0.21821671  0.08783171  0.26627249    -0.14300
C235        C  0.21826752  0.08776830  0.22524564    -0.14300
C236        C  0.21843129  0.11090641  0.20414349     0.07900
C237        C  0.21971345  0.13467168  0.22517723    -0.14300
H238        H  0.21985369  0.15300534  0.28136044     0.11900
H239        H  0.21736115  0.06925486  0.28146375     0.11900
H240        H  0.21744251  0.06919021  0.21011376     0.11900
H241        H  0.22004836  0.15299573  0.20997251     0.11900
C242        C  0.37852247  0.24579815  0.22513169    -0.14300
C243        C  0.35737756  0.24944887  0.20417107     0.07900
C244        C  0.33576266  0.25203650  0.22533162    -0.14300
C245        C  0.33595251  0.25212380  0.26632116    -0.14300
C246        C  0.35779588  0.24968503  0.28730392     0.07900
C247        C  0.37875657  0.24595942  0.26619545    -0.14300
H248        H  0.39539699  0.24351101  0.20983981     0.11900
H249        H  0.31910212  0.25480480  0.21027448     0.11900
H250        H  0.31936977  0.25494477  0.28152155     0.11900
H251        H  0.39573482  0.24377150  0.28135125     0.11900
C252        C  0.38145423  0.13258540  0.22523329    -0.14300
C253        C  0.35746478  0.11058925  0.20410772     0.07900
C254        C  0.33289872  0.08910219  0.22510383    -0.14300
C255        C  0.33285628  0.08888694  0.26614771    -0.14300
C256        C  0.35734445  0.11020152  0.28724406     0.07900
C257        C  0.38137928  0.13241448  0.26624463    -0.14300
H258        H  0.40069204  0.14953715  0.21013576     0.11900
H259        H  0.31389978  0.07193062  0.20985606     0.11900
H260        H  0.31387739  0.07162051  0.28129868     0.11900
H261        H  0.40061297  0.14929738  0.28144373     0.11900
C262        C  0.07424659  0.22900361  0.22525250    -0.14300
C263        C  0.09780343  0.23005286  0.20414141     0.07900
C264        C  0.12189389  0.23204601  0.22515730    -0.14300
C265        C  0.12192357  0.23190160  0.26619664    -0.14300
C266        C  0.09789989  0.22984100  0.28728225     0.07900
C267        C  0.07430615  0.22892491  0.26626360    -0.13400
H268        H  0.05537978  0.22755476  0.21013837     0.11900
H269        H  0.14052712  0.23305021  0.20993273     0.11900
H270        H  0.14053843  0.23282159  0.28135058     0.11900
H271        H  0.05543796  0.22742585  0.28145273     0.11900
C272        C  0.11964418  0.39439534  0.22523681    -0.14300
C273        C  0.09759898  0.37042413  0.20413108     0.07900
C274        C  0.07606284  0.34591092  0.22515012    -0.14300
C275        C  0.07589519  0.34586680  0.26619116    -0.14300
C276        C  0.09730123  0.37030444  0.28727493     0.07900
C277        C  0.11951540  0.39432227  0.26625339    -0.14300
H278        H  0.13662935  0.41359914  0.21011940     0.11900
H279        H  0.05884357  0.32693459  0.20992293     0.11900
H280        H  0.05861118  0.32690745  0.28135339     0.11900
H281        H  0.13645597  0.41352288  0.28144235     0.11900
C282        C  0.24238466  0.34983781  0.22530008    -0.14300
C283        C  0.23727176  0.36986779  0.20414344     0.07900
C284        C  0.23131999  0.38949745  0.22510163    -0.14300
C285        C  0.23156836  0.38979818  0.26618863    -0.14300
C286        C  0.23768572  0.37041428  0.28726810     0.07900
C287        C  0.24256314  0.35009132  0.26627494    -0.14300
H288        H  0.24708727  0.33444706  0.21024069     0.11900
H289        H  0.22704995  0.40509273  0.20976980     0.11900
H290        H  0.22745446  0.40553990  0.28139896     0.11900
H291        H  0.24737409  0.33481822  0.28146464     0.11900
C292        C  0.23995942  0.37148915  0.66068534     0.79300
N293        N  0.24065374  0.39436363  0.64105444    -0.79000
C294        C  0.24550050  0.39743086  0.60178798     0.81700
N295        N  0.24951168  0.37730633  0.58165553    -0.79000
C296        C  0.24793442  0.35378920  0.60081776     0.81800
N297        N  0.24319984  0.35100376  0.64020120    -0.80700
C298        C  0.24041082  0.37201642  0.83070279     0.79300
N299        N  0.24230727  0.39526614  0.85102266    -0.79000
C300        C  0.24707724  0.39746624  0.89045934     0.81700
N301        N  0.24979955  0.37621779  0.90976722    -0.79000
C302        C  0.24701703  0.35253643  0.88974262     0.81800
N303        N  0.24233978  0.35059728  0.85050308    -0.80700
C304        C  0.09575365  0.37158365  0.83071973     0.79300
N305        N  0.07240429  0.35032603  0.85102176    -0.79000
C306        C  0.07021602  0.35283936  0.89044635     0.81700
N307        N  0.09156884  0.37671960  0.90980896    -0.79000
C308        C  0.11534162  0.39756087  0.88982342     0.81800
N309        N  0.11729843  0.39484467  0.85056081    -0.80700
C310        C  0.09602165  0.37159156  0.66066966     0.79300
N311        N  0.07309800  0.34946629  0.64100617    -0.79000
C312        C  0.07016750  0.35116775  0.60171321     0.81700
N313        N  0.09044413  0.37520633  0.58155914    -0.79000
C314        C  0.11398281  0.39711078  0.60075966     0.81800
N315        N  0.11668260  0.39521402  0.64017704    -0.80700
C316        C  0.09658675  0.22742235  0.66066732     0.79300
N317        N  0.07293992  0.22449554  0.64029066    -0.79000
C318        C  0.07095345  0.21990845  0.60086754     0.81700
N319        N  0.09280438  0.21827343  0.58154730    -0.79000
C320        C  0.11688041  0.22203265  0.60157798     0.81800
N321        N  0.11865499  0.22663239  0.64088046    -0.80700
C322        C  0.09661698  0.22719148  0.83074053     0.79300
N323        N  0.11786187  0.22517292  0.85111966    -0.79000
C324        C  0.11542363  0.22072644  0.89057976     0.81700
N325        N  0.09161463  0.21834513  0.90991660    -0.79000
C326        C  0.07077305  0.22119436  0.88985252     0.81800
N327        N  0.07341995  0.22564074  0.85053772    -0.80700
C328        C  0.35869599  0.10854570  0.83066548     0.79300
N329        N  0.33753009  0.08510753  0.85094424    -0.79000
C330        C  0.34015483  0.08283156  0.89033283     0.81700
N331        N  0.36405327  0.10418224  0.90966867    -0.79000
C332        C  0.38479992  0.12803345  0.88970807     0.81800
N333        N  0.38197450  0.13007452  0.85049234    -0.80700
C334        C  0.35871209  0.10894910  0.66066346     0.79300
N335        N  0.33665521  0.08595621  0.64101862    -0.79000
C336        C  0.33846580  0.08290452  0.60177546     0.81700
N337        N  0.36254457  0.10313107  0.58164848    -0.79000
C338        C  0.38438688  0.12673509  0.60081782     0.81800
N339        N  0.38238739  0.12955558  0.64019197    -0.80700
C340        C  0.35898561  0.25235506  0.66072762     0.79300
N341        N  0.33843294  0.25555067  0.64032983    -0.79000
C342        C  0.34123381  0.26043375  0.60096476     0.81700
N343        N  0.36479508  0.26215181  0.58174444    -0.79000
C344        C  0.38496473  0.25816914  0.60179373     0.81800
N345        N  0.38191024  0.25322897  0.64102270    -0.80700
C346        C  0.35937698  0.25258402  0.83073100     0.79300
N347        N  0.38271697  0.25473269  0.85107538    -0.79000
C348        C  0.38490582  0.25956099  0.89047800     0.81700
N349        N  0.36358995  0.26216894  0.90975885    -0.79000
C350        C  0.33983547  0.25918856  0.88972584     0.81800
N351        N  0.33786915  0.25438787  0.85049940    -0.80700
C352        C  0.21533890  0.10955061  0.83074689     0.79300
N353        N  0.21369676  0.08630160  0.85052281    -0.79000
C354        C  0.20891974  0.08348110  0.88977971     0.81700
N355        N  0.20583338  0.10419853  0.90980238    -0.79000
C356        C  0.20828735  0.12804881  0.89049840     0.81800
N357        N  0.21305414  0.13065261  0.85110372    -0.80700
C358        C  0.21553146  0.10953628  0.66068697     0.79300
N359        N  0.21258593  0.08587415  0.64032679    -0.79000
C360        C  0.20770330  0.08373927  0.60095835     0.81700
N361        N  0.20580060  0.10545445  0.58167737    -0.79000
C362        C  0.20956257  0.12953653  0.60168347     0.81800
N363        N  0.21444374  0.13145474  0.64092546    -0.80700
C364        C  0.24974344  0.33049931  0.57919552     0.41500
N365        N  0.24345608  0.28793143  0.56495096     0.00400
C366        C  0.28473701  0.24369205  0.89676128    -0.07500
H367        H  0.21702256  0.28767025  0.87173628     0.05900
C368        C  0.13729559  0.20462994  0.94894391    -0.07800
Co369      Co  0.27554107  0.28800828  0.99233671     0.74200
N370        N  0.23877913  0.28309631  0.92266932    -0.27000
Co371      Co  0.22622040  0.23877227  0.92375400     0.74100
C372        C  0.13913204  0.21973364  0.91214702     0.41600
N373        N  0.16771328  0.21275834  0.54238059     0.00000
N374        N  0.18184976  0.22639913  0.92619685     0.00100
N375        N  0.31680509  0.27485012  0.94222115    -0.47800
H376        H  0.27835751  0.35160108  0.52425796     0.05900
N377        N  0.25716567  0.30211077  0.94868442     0.00400
N378        N  0.21374321  0.19437599  0.92614464     0.00200
C379        C  0.20709845  0.15167069  0.91203702     0.41800
N380        N  0.18668976  0.23112331  0.56843148    -0.26500
C381        C  0.31998024  0.27747427  0.54252264    -0.07400
N382        N  0.23703518  0.30230945  0.59144756    -0.47600
N383        N  0.21993951  0.17983814  0.89961162    -0.47800
C384        C  0.31793885  0.26226516  0.57937490     0.41500
N385        N  0.28954370  0.26950785  0.94869999     0.00400
N386        N  0.21849721  0.19924480  0.56846536    -0.26500
N387        N  0.26013046  0.30504884  0.53620199    -0.27000
N388        N  0.20014757  0.18025722  0.54240992     0.00000
H389        H  0.23996863  0.19455786  0.61964931     0.05900
H390        H  0.17856703  0.13080377  0.96706021     0.06000
N391        N  0.27049751  0.25117955  0.92266428    -0.27000
N392        N  0.16483315  0.20974853  0.95502849    -0.26600
N393        N  0.27537092  0.25594802  0.56502693     0.00400
C394        C  0.24691325  0.32784367  0.90994616     0.41800
C395        C  0.17229677  0.23839441  0.59440834    -0.07900
N396        N  0.19711645  0.17735390  0.95498750    -0.26600
H397        H  0.11828930  0.19116407  0.96713292     0.06000
N398        N  0.26262266  0.32941344  0.94220971    -0.47800
H399        H  0.18196093  0.25262098  0.61956952     0.05900
C400        C  0.21009525  0.15441103  0.58137027     0.41600
C401        C  0.26501917  0.33252944  0.54240541    -0.07400
Co402      Co  0.23101094  0.24357046  0.56733314     0.73800
N403        N  0.14037635  0.20714518  0.54891746    -0.47600
C404        C  0.31517143  0.25912669  0.90993939     0.41900
N405        N  0.28973967  0.24956948  0.59159846    -0.47600
Co406      Co  0.18179845  0.19436856  0.99881373     0.73900
C407        C  0.19200167  0.14981525  0.94886304    -0.07900
C408        C  0.23137121  0.29740372  0.89677436    -0.07400
N409        N  0.29250489  0.27257309  0.53625791    -0.27000
N410        N  0.16729405  0.23259002  0.89968132    -0.47700
H411        H  0.27496371  0.22936453  0.87171311     0.05900
C412        C  0.22574419  0.18487268  0.59449162    -0.07900
Cl413      Cl  0.22865487  0.24118767  0.99554217    -0.50900
C414        C  0.14183614  0.22274174  0.58124300     0.41700
H415        H  0.33906245  0.29080049  0.52438583     0.05900
N416        N  0.19452535  0.15292019  0.54899509    -0.47600
C417        C  0.04545909  0.32909965  0.91200294     0.41500
N418        N  0.50962835  0.28625934  0.92629914     0.00400
C419        C  0.42414809  0.24200059  0.59463785    -0.07500
H420        H  0.03576296  0.28606761  0.61975042     0.05900
C421        C  0.03265545  0.20298201  0.54254360    -0.07800
Co422      Co  0.47760856  0.28610058  0.99898991     0.74200
N423        N  0.50951967  0.28126826  0.56859464    -0.27000
Co424      Co  0.47769809  0.23692673  0.56744965     0.74100
C425        C  0.04588641  0.21821003  0.57934320     0.41600
N426        N  0.51028150  0.21109154  0.94888105     0.00000
N427        N  0.50967596  0.22457573  0.56509347     0.00100
N428        N  0.42342473  0.27323262  0.54919502    -0.47800
H429        H  0.03769996  0.34985916  0.96704799     0.05900
N430        N  0.51007677  0.30022522  0.54256906     0.00400
N431        N  0.44575304  0.19258652  0.56500680     0.00200
C432        C  0.40942960  0.15004144  0.57918721     0.41800
N433        N  0.50962091  0.22945739  0.92287954    -0.26500
C434        C  0.42282476  0.27576758  0.94898097    -0.07400
N435        N  0.03025907  0.30089860  0.89964959    -0.47600
N436        N  0.42492639  0.17821281  0.59147779    -0.47800
C437        C  0.40966505  0.26071485  0.91209167     0.41500
N438        N  0.44515196  0.26765049  0.54258775     0.00400
N439        N  0.44593746  0.19749934  0.92281751    -0.26500
N440        N  0.50995636  0.30324102  0.95513960    -0.27000
N441        N  0.44529319  0.17846855  0.94879220     0.00000
H442        H  0.41960815  0.19295112  0.87188882     0.05900
H443        H  0.41691564  0.12893736  0.52425218     0.06000
N444        N  0.44580074  0.24930633  0.56861741    -0.27000
N445        N  0.51011998  0.20792553  0.53633156    -0.26600
N446        N  0.44571471  0.25411717  0.92631642     0.00400
C447        C  0.04588448  0.32617476  0.58148349     0.41800
C448        C  0.03135798  0.23693104  0.89698024    -0.07900
N449        N  0.44528944  0.17547967  0.53624699    -0.26600
H450        H  0.03834963  0.18962675  0.52439549     0.06000
N451        N  0.03173707  0.32759252  0.54915500    -0.47800
H452        H  0.03593320  0.25125076  0.87192480     0.05900
C453        C  0.40931955  0.15274908  0.91000208     0.41600
C454        C  0.03224026  0.33085429  0.94890820    -0.07400
Co455      Co  0.47773412  0.24182590  0.92392595     0.73800
N456        N  0.03216087  0.20570888  0.94239002    -0.47600
C457        C  0.40931803  0.25762541  0.58153341     0.41900
N458        N  0.42502809  0.24792614  0.89970328    -0.47600
Co459      Co  0.47774587  0.19253821  0.99243872     0.73900
C460        C  0.42266792  0.14800321  0.54241206    -0.07900
C461        C  0.03116688  0.29570642  0.59460117    -0.07400
N462        N  0.44525911  0.27069569  0.95516749    -0.27000
N463        N  0.03044892  0.23094324  0.59163028    -0.47700
H464        H  0.41960876  0.22777021  0.61978545     0.05900
C465        C  0.42421194  0.18320467  0.89690957    -0.07900
Cl466      Cl  0.47771268  0.23934717  0.99568552    -0.50900
C467        C  0.04629348  0.22144310  0.91013408     0.41700
H468        H  0.41722131  0.28918528  0.96714450     0.05900
N469        N  0.42345273  0.15116193  0.94225491    -0.47600
C470        C  0.24817189  0.42221613  0.91209635     0.41500
N471        N  0.24151099  0.45822997  0.92639815     0.00400
C472        C  0.28309082  0.04372777  0.59470743    -0.07500
H473        H  0.21510916  0.43211084  0.61980753     0.05900
C474        C  0.13540714  0.43542010  0.54240928    -0.07800
Co475      Co  0.27355524  0.49019696  0.99905485     0.74200
N476        N  0.23670684  0.45834977  0.56869060    -0.27000
Co477      Co  0.22435835  0.49027190  0.56754344     0.74100
C478        C  0.13737385  0.42209673  0.57913871     0.41600
N479        N  0.16588977  0.45799175  0.94891007     0.00000
N480        N  0.17998402  0.45837132  0.56505628     0.00100
N481        N  0.31501228  0.04440998  0.54923011    -0.47800
H482        H  0.27673285  0.42985274  0.96708270     0.05900
N483        N  0.25506958  0.45771617  0.54267459     0.00400
N484        N  0.21209546  0.02231047  0.56520892     0.00200
C485        C  0.20591813  0.05863754  0.57943295     0.41800
N486        N  0.18489795  0.45854085  0.92297416    -0.26500
C487        C  0.31829446  0.04484616  0.94885501    -0.07400
N488        N  0.23533029  0.43754804  0.89976688    -0.47600
N489        N  0.21854081  0.04310436  0.59173919    -0.47800
C490        C  0.31649254  0.05800292  0.91190385     0.41500
N491        N  0.28766973  0.02268219  0.54266051     0.00400
N492        N  0.21695437  0.02221944  0.92293662    -0.26500
N493        N  0.25814438  0.45781868  0.95520819    -0.27000
N494        N  0.19864355  0.02297377  0.94894445     0.00000
H495        H  0.23873941  0.04841682  0.87190201     0.05900
H496        H  0.17740472  0.05123209  0.52444622     0.06000
N497        N  0.26869766  0.02207035  0.56870684    -0.27000
N498        N  0.16291468  0.45800103  0.53630750    -0.26600
N499        N  0.27368631  0.02215384  0.92631091     0.00400
C500        C  0.24496701  0.42181637  0.58156941     0.41800
C501        C  0.17055454  0.43681601  0.89708241    -0.07900
N502        N  0.19550723  0.02283885  0.53642389    -0.26600
H503        H  0.11636869  0.42974412  0.52423064     0.06000
N504        N  0.26060830  0.43595557  0.54925850    -0.47800
H505        H  0.18026967  0.43216210  0.87207206     0.05900
C506        C  0.20903163  0.05893251  0.91007362     0.41600
C507        C  0.26326161  0.43541550  0.94896705    -0.07400
Co508      Co  0.22924731  0.49028101  0.92402109     0.73800
N509        N  0.13855079  0.43621831  0.94236122    -0.47600
C510        C  0.31354687  0.05852594  0.58157230     0.41900
N511        N  0.28828200  0.04275753  0.89961341    -0.47600
Co512      Co  0.18004411  0.49046543  0.99252903     0.73900
C513        C  0.19068218  0.04545207  0.54261960    -0.07900
C514        C  0.22936168  0.43666525  0.59468168    -0.07400
N515        N  0.29069505  0.02254137  0.95515449    -0.27000
N516        N  0.16554411  0.43751708  0.59147491    -0.47700
H517        H  0.27342097  0.04830746  0.61983691     0.05900
C518        C  0.22445020  0.04391840  0.89697191    -0.07900
Cl519      Cl  0.22680531  0.49031728  0.99577779    -0.50900
C520        C  0.14009349  0.42203118  0.91013792     0.41700
H521        H  0.33732033  0.05036229  0.96697944     0.05900
N522        N  0.19331658  0.04488396  0.94238580    -0.47600
C523        C  0.21959222  0.13470137  0.76621398    -0.14300
C524        C  0.21826765  0.11100552  0.78730289     0.07900
C525        C  0.21821670  0.08783168  0.76627251    -0.14300
C526        C  0.21826752  0.08776828  0.72524565    -0.14300
C527        C  0.21843130  0.11090639  0.70414349     0.07900
C528        C  0.21971345  0.13467167  0.72517723    -0.14300
H529        H  0.21985364  0.15300539  0.78136047     0.11900
H530        H  0.21736116  0.06925489  0.78146376     0.11900
H531        H  0.21744253  0.06919018  0.71011380     0.11900
H532        H  0.22004836  0.15299568  0.70997251     0.11900
C533        C  0.37852247  0.24579809  0.72513167    -0.14300
C534        C  0.35737754  0.24944881  0.70417105     0.07900
C535        C  0.33576266  0.25203644  0.72533161    -0.14300
C536        C  0.33595253  0.25212374  0.76632112    -0.14300
C537        C  0.35779586  0.24968496  0.78730392     0.07900
C538        C  0.37875657  0.24595937  0.76619543    -0.14300
H539        H  0.39539699  0.24351095  0.70983978     0.11900
H540        H  0.31910211  0.25480474  0.71027446     0.11900
H541        H  0.31936967  0.25494472  0.78152161     0.11900
H542        H  0.39573481  0.24377144  0.78135125     0.11900
C543        C  0.38145419  0.13258545  0.72523327    -0.14300
C544        C  0.35746477  0.11058929  0.70410770     0.07900
C545        C  0.33289874  0.08910218  0.72510381    -0.14300
C546        C  0.33285629  0.08888698  0.76614769    -0.14300
C547        C  0.35734445  0.11020150  0.78724407     0.07900
C548        C  0.38137931  0.13241446  0.76624463    -0.14300
H549        H  0.40069201  0.14953728  0.71013572     0.11900
H550        H  0.31389985  0.07193061  0.70985607     0.11900
H551        H  0.31387733  0.07162054  0.78129869     0.11900
H552        H  0.40061298  0.14929732  0.78144370     0.11900
C553        C  0.07424656  0.22900355  0.72525254    -0.14300
C554        C  0.09780340  0.23005281  0.70414145     0.07900
C555        C  0.12189386  0.23204595  0.72515731    -0.14300
C556        C  0.12192356  0.23190158  0.76619665    -0.14300
C557        C  0.09789990  0.22984105  0.78728227     0.07900
C558        C  0.07430613  0.22892490  0.76626365    -0.13400
H559        H  0.05537975  0.22755467  0.71013847     0.11900
H560        H  0.14052708  0.23305011  0.70993272     0.11900
H561        H  0.14053835  0.23282151  0.78135057     0.11900
H562        H  0.05543796  0.22742578  0.78145273     0.11900
C563        C  0.11964420  0.39439531  0.72523682    -0.14300
C564        C  0.09759901  0.37042414  0.70413109     0.07900
C565        C  0.07606284  0.34591094  0.72515010    -0.14300
C566        C  0.07589521  0.34586683  0.76619116    -0.14300
C567        C  0.09730129  0.37030445  0.78727493     0.07900
C568        C  0.11951543  0.39432227  0.76625337    -0.14300
H569        H  0.13662944  0.41359924  0.71011929     0.11900
H570        H  0.05884360  0.32693470  0.70992296     0.11900
H571        H  0.05861117  0.32690749  0.78135339     0.11900
H572        H  0.13645602  0.41352296  0.78144238     0.11900
C573        C  0.24238464  0.34983782  0.72530008    -0.14300
C574        C  0.23727176  0.36986779  0.70414343     0.07900
C575        C  0.23131997  0.38949751  0.72510157    -0.14300
C576        C  0.23156844  0.38979829  0.76618861    -0.14300
C577        C  0.23768579  0.37041438  0.78726807     0.07900
C578        C  0.24256315  0.35009135  0.76627494    -0.14300
H579        H  0.24708723  0.33444704  0.71024070     0.11900
H580        H  0.22704993  0.40509259  0.70976991     0.11900
H581        H  0.22745457  0.40553998  0.78139887     0.11900
H582        H  0.24737404  0.33481824  0.78146464     0.11900
C583        C  0.23995946  0.87148916  0.16068536     0.79300
N584        N  0.24065380  0.89436364  0.14105446    -0.79000
C585        C  0.24550058  0.89743089  0.10178800     0.81700
N586        N  0.24951173  0.87730633  0.08165555    -0.79000
C587        C  0.24793445  0.85378920  0.10081778     0.81800
N588        N  0.24319988  0.85100376  0.14020122    -0.80700
C589        C  0.24041078  0.87201638  0.33070280     0.79300
N590        N  0.24230729  0.89526612  0.35102265    -0.79000
C591        C  0.24707729  0.89746625  0.39045933     0.81700
N592        N  0.24979956  0.87621778  0.40976721    -0.79000
C593        C  0.24701699  0.85253640  0.38974262     0.81800
N594        N  0.24233975  0.85059725  0.35050308    -0.80700
C595        C  0.09575365  0.87158365  0.33071975     0.79300
N596        N  0.07240424  0.85032609  0.35102178    -0.79000
C597        C  0.07021600  0.85283942  0.39044637     0.81700
N598        N  0.09156887  0.87671962  0.40980897    -0.79000
C599        C  0.11534165  0.89756088  0.38982343     0.81800
N600        N  0.11729847  0.89484464  0.35056082    -0.80700
C601        C  0.09602171  0.87159153  0.16066963     0.79300
N602        N  0.07309804  0.84946629  0.14100614    -0.79000
C603        C  0.07016751  0.85116777  0.10171319     0.81700
N604        N  0.09044415  0.87520636  0.08155911    -0.79000
C605        C  0.11398282  0.89711080  0.10075964     0.81800
N606        N  0.11668265  0.89521402  0.14017699    -0.80700
C607        C  0.09658678  0.72742234  0.16066730     0.79300
N608        N  0.07293994  0.72449552  0.14029059    -0.79000
C609        C  0.07095350  0.71990848  0.10086749     0.81700
N610        N  0.09280447  0.71827354  0.08154725    -0.79000
C611        C  0.11688044  0.72203266  0.10157797     0.81800
N612        N  0.11865499  0.72663235  0.14088046    -0.80700
C613        C  0.09661694  0.72719146  0.33074052     0.79300
N614        N  0.11786184  0.72517290  0.35111966    -0.79000
C615        C  0.11542361  0.72072643  0.39057976     0.81700
N616        N  0.09161460  0.71834511  0.40991661    -0.79000
C617        C  0.07077302  0.72119434  0.38985252     0.81800
N618        N  0.07341992  0.72564072  0.35053772    -0.80700
C619        C  0.35869594  0.60854572  0.33066547     0.79300
N620        N  0.33753010  0.58510752  0.35094421    -0.79000
C621        C  0.34015482  0.58283158  0.39033283     0.81700
N622        N  0.36405328  0.60418224  0.40966862    -0.79000
C623        C  0.38479989  0.62803347  0.38970805     0.81800
N624        N  0.38197444  0.63007458  0.35049232    -0.80700
C625        C  0.35871207  0.60894909  0.16066348     0.79300
N626        N  0.33665514  0.58595624  0.14101862    -0.79000
C627        C  0.33846574  0.58290458  0.10177546     0.81700
N628        N  0.36254455  0.60313105  0.08164850    -0.79000
C629        C  0.38438684  0.62673510  0.10081784     0.81800
N630        N  0.38238733  0.62955559  0.14019199    -0.80700
C631        C  0.35898560  0.75235509  0.16072764     0.79300
N632        N  0.33843296  0.75555079  0.14032988    -0.79000
C633        C  0.34123379  0.76043378  0.10096479     0.81700
N634        N  0.36479502  0.76215178  0.08174443    -0.79000
C635        C  0.38496469  0.75816912  0.10179372     0.81800
N636        N  0.38191018  0.75322894  0.14102269    -0.80700
C637        C  0.35937694  0.75258400  0.33073100     0.79300
N638        N  0.38271698  0.75473271  0.35107536    -0.79000
C639        C  0.38490585  0.75956106  0.39047798     0.81700
N640        N  0.36358996  0.76216898  0.40975879    -0.79000
C641        C  0.33983543  0.75918853  0.38972581     0.81800
N642        N  0.33786912  0.75438783  0.35049936    -0.80700
C643        C  0.21533892  0.60955061  0.33074691     0.79300
N644        N  0.21369670  0.58630157  0.35052283    -0.79000
C645        C  0.20891969  0.58348110  0.38977973     0.81700
N646        N  0.20583333  0.60419853  0.40980239    -0.79000
C647        C  0.20828739  0.62804884  0.39049841     0.81800
N648        N  0.21305423  0.63065265  0.35110374    -0.80700
C649        C  0.21553144  0.60953631  0.16068697     0.79300
N650        N  0.21258599  0.58587420  0.14032679    -0.79000
C651        C  0.20770328  0.58373926  0.10095837     0.81700
N652        N  0.20580049  0.60545440  0.08167739    -0.79000
C653        C  0.20956258  0.62953654  0.10168343     0.81800
N654        N  0.21444376  0.63145478  0.14092543    -0.80700
C655        C  0.24974345  0.83049930  0.07919556     0.41500
N656        N  0.24345608  0.78793143  0.06495096     0.00400
C657        C  0.28473695  0.74369205  0.39676128    -0.07500
H658        H  0.21702252  0.78767014  0.37173603     0.05900
C659        C  0.13729553  0.70462995  0.44894391    -0.07800
Co660      Co  0.27554107  0.78800827  0.49233671     0.74200
N661        N  0.23877909  0.78309629  0.42266935    -0.27000
Co662      Co  0.22622039  0.73877227  0.42375404     0.74100
C663        C  0.13913202  0.71973364  0.41214700     0.41600
N664        N  0.16771328  0.71275839  0.04238053     0.00000
N665        N  0.18184971  0.72639907  0.42619683     0.00100
N666        N  0.31680507  0.77485008  0.44222116    -0.47800
H667        H  0.27835745  0.85160109  0.02425795     0.05900
N668        N  0.25716569  0.80211082  0.44868441     0.00400
N669        N  0.21374324  0.69437600  0.42614467     0.00200
C670        C  0.20709854  0.65167074  0.41203706     0.41800
N671        N  0.18668973  0.73112333  0.06843144    -0.26500
C672        C  0.31998020  0.77747426  0.04252268    -0.07400
N673        N  0.23703523  0.80230946  0.09144763    -0.47600
N674        N  0.21993961  0.67983819  0.39961170    -0.47800
C675        C  0.31793880  0.76226516  0.07937494     0.41500
N676        N  0.28954371  0.76950784  0.44870003     0.00400
N677        N  0.21849718  0.69924482  0.06846539    -0.26500
N678        N  0.26013043  0.80504883  0.03620199    -0.27000
N679        N  0.20014753  0.68025726  0.04240995     0.00000
H680        H  0.23996862  0.69455786  0.11964944     0.05900
H681        H  0.17856709  0.63080376  0.46706020     0.06000
N682        N  0.27049749  0.75117956  0.42266433    -0.27000
N683        N  0.16483309  0.70974854  0.45502849    -0.26600
N684        N  0.27537087  0.75594800  0.06502693     0.00400
C685        C  0.24691320  0.82784365  0.40994612     0.41800
C686        C  0.17229674  0.73839443  0.09440826    -0.07900
N687        N  0.19711640  0.67735389  0.45498748    -0.26600
H688        H  0.11828929  0.69116416  0.46713282     0.06000
N689        N  0.26262270  0.82941346  0.44220960    -0.47800
H690        H  0.18196092  0.75262111  0.11956963     0.05900
C691        C  0.21009524  0.65441105  0.08137025     0.41600
C692        C  0.26501911  0.83252942  0.04240539    -0.07400
Co693      Co  0.23101090  0.74357046  0.06733315     0.73800
N694        N  0.14037633  0.70714520  0.04891742    -0.47600
C695        C  0.31517139  0.75912667  0.40993935     0.41900
N696        N  0.28973961  0.74956945  0.09159848    -0.47600
Co697      Co  0.18179839  0.69436856  0.49881373     0.73900
C698        C  0.19200170  0.64981526  0.44886302    -0.07900
C699        C  0.23137121  0.79740371  0.39677438    -0.07400
N700        N  0.29250486  0.77257307  0.03625792    -0.27000
N701        N  0.16729400  0.73258994  0.39968125    -0.47700
H702        H  0.27496357  0.72936453  0.37171315     0.05900
C703        C  0.22574415  0.68487268  0.09449161    -0.07900
Cl704      Cl  0.22865479  0.74118767  0.49554218    -0.50900
C705        C  0.14183614  0.72274175  0.08124298     0.41700
H706        H  0.33906245  0.79080051  0.02438587     0.05900
N707        N  0.19452529  0.65292020  0.04899513    -0.47600
C708        C  0.04545914  0.82909964  0.41200301     0.41500
N709        N  0.50962840  0.78625933  0.42629918     0.00400
C710        C  0.42414808  0.74200057  0.09463788    -0.07500
H711        H  0.03576300  0.78606758  0.11975051     0.05900
C712        C  0.03265543  0.70298197  0.04254356    -0.07800
Co713      Co  0.47760859  0.78610059  0.49898992     0.74200
N714        N  0.50951966  0.78126827  0.06859462    -0.27000
Co715      Co  0.47769807  0.73692672  0.06744966     0.74100
C716        C  0.04588646  0.71821004  0.07934309     0.41600
N717        N  0.51028144  0.71109152  0.44888103     0.00000
N718        N  0.50967598  0.72457573  0.06509342     0.00100
N719        N  0.42342472  0.77323261  0.04919505    -0.47800
H720        H  0.03770002  0.84985913  0.46704804     0.05900
N721        N  0.51007673  0.80022523  0.04256906     0.00400
N722        N  0.44575303  0.69258651  0.06500686     0.00200
C723        C  0.40942956  0.65004144  0.07918723     0.41800
N724        N  0.50962086  0.72945735  0.42287953    -0.26500
C725        C  0.42282480  0.77576762  0.44898098    -0.07400
N726        N  0.03025910  0.80089860  0.39964962    -0.47600
N727        N  0.42492638  0.67821279  0.09147786    -0.47800
C728        C  0.40966506  0.76071486  0.41209170     0.41500
N729        N  0.44515194  0.76765044  0.04258775     0.00400
N730        N  0.44593739  0.69749937  0.42281751    -0.26500
N731        N  0.50995639  0.80324100  0.45513964    -0.27000
N732        N  0.44529314  0.67846856  0.44879215     0.00000
H733        H  0.41960809  0.69295115  0.37188890     0.05900
H734        H  0.41691567  0.62893734  0.02425226     0.06000
N735        N  0.44580071  0.74930629  0.06861742    -0.27000
N736        N  0.51011997  0.70792551  0.03633157    -0.26600
N737        N  0.44571479  0.75411726  0.42631641     0.00400
C738        C  0.04588454  0.82617476  0.08148337     0.41800
C739        C  0.03135798  0.73693104  0.39698025    -0.07900
N740        N  0.44528941  0.67547966  0.03624704    -0.26600
H741        H  0.03834958  0.68962657  0.02439534     0.06000
N742        N  0.03173708  0.82759252  0.04915492    -0.47800
H743        H  0.03593324  0.75125077  0.37192481     0.05900
C744        C  0.40931946  0.65274911  0.41000211     0.41600
C745        C  0.03224030  0.83085427  0.44890827    -0.07400
Co746      Co  0.47773411  0.74182591  0.42392597     0.73800
N747        N  0.03216086  0.70570888  0.44239003    -0.47600
C748        C  0.40931802  0.75762541  0.08153344     0.41900
N749        N  0.42502814  0.74792618  0.39970330    -0.47600
Co750      Co  0.47774583  0.69253820  0.49243866     0.73900
C751        C  0.42266791  0.64800320  0.04241209    -0.07900
C752        C  0.03116688  0.79570645  0.09460105    -0.07400
N753        N  0.44525919  0.77069579  0.45516748    -0.27000
N754        N  0.03044899  0.73094326  0.09163022    -0.47700
H755        H  0.41960876  0.72777021  0.11978550     0.05900
C756        C  0.42421186  0.68320471  0.39690957    -0.07900
Cl757      Cl  0.47771271  0.73934717  0.49568552    -0.50900
C758        C  0.04629347  0.72144311  0.41013411     0.41700
H759        H  0.41722128  0.78918524  0.46714458     0.05900
N760        N  0.42345266  0.65116194  0.44225490    -0.47600
C761        C  0.24817188  0.92221612  0.41209632     0.41500
N762        N  0.24151098  0.95822995  0.42639813     0.00400
C763        C  0.28309081  0.54372774  0.09470749    -0.07500
H764        H  0.21510921  0.93211082  0.11980765     0.05900
C765        C  0.13540721  0.93542011  0.04240930    -0.07800
Co766      Co  0.27355524  0.99019696  0.49905487     0.74200
N767        N  0.23670685  0.95834974  0.06869057    -0.27000
Co768      Co  0.22435839  0.99027190  0.06754343     0.74100
C769        C  0.13737389  0.92209677  0.07913871     0.41600
N770        N  0.16588973  0.95799180  0.44891005     0.00000
N771        N  0.17998409  0.95837131  0.06505619     0.00100
N772        N  0.31501230  0.54441007  0.04923009    -0.47800
H773        H  0.27673270  0.92985271  0.46708263     0.05900
N774        N  0.25506955  0.95771613  0.04267452     0.00400
N775        N  0.21209543  0.52231044  0.06520895     0.00200
C776        C  0.20591816  0.55863756  0.07943295     0.41800
N777        N  0.18489792  0.95854088  0.42297416    -0.26500
C778        C  0.31829451  0.54484618  0.44885498    -0.07400
N779        N  0.23533031  0.93754805  0.39976682    -0.47600
N780        N  0.21854083  0.54310435  0.09173919    -0.47800
C781        C  0.31649250  0.55800302  0.41190388     0.41500
N782        N  0.28766972  0.52268220  0.04266051     0.00400
N783        N  0.21695437  0.52221949  0.42293650    -0.26500
N784        N  0.25814432  0.95781864  0.45520819    -0.27000
N785        N  0.19864353  0.52297381  0.44894441     0.00000
H786        H  0.23873952  0.54841706  0.37190190     0.05900
H787        H  0.17740469  0.55123218  0.02444615     0.06000
N788        N  0.26869769  0.52207032  0.06870688    -0.27000
N789        N  0.16291473  0.95800100  0.03630747    -0.26600
N790        N  0.27368632  0.52215385  0.42631084     0.00400
C791        C  0.24496709  0.92181639  0.08156941     0.41800
C792        C  0.17055451  0.93681603  0.39708247    -0.07900
N793        N  0.19550718  0.52283882  0.03642393    -0.26600
H794        H  0.11636858  0.92974408  0.02423055     0.06000
N795        N  0.26060832  0.93595556  0.04925845    -0.47800
H796        H  0.18026968  0.93216206  0.37207204     0.05900
C797        C  0.20903164  0.55893258  0.41007367     0.41600
C798        C  0.26326155  0.93541544  0.44896709    -0.07400
Co799      Co  0.22924730  0.99028098  0.42402107     0.73800
N800        N  0.13855074  0.93621834  0.44236122    -0.47600
C801        C  0.31354684  0.55852597  0.08157230     0.41900
N802        N  0.28828197  0.54275758  0.39961343    -0.47600
Co803      Co  0.18004411  0.99046542  0.49252903     0.73900
C804        C  0.19068219  0.54545207  0.04261966    -0.07900
C805        C  0.22936176  0.93666525  0.09468166    -0.07400
N806        N  0.29069508  0.52254132  0.45515441    -0.27000
N807        N  0.16554416  0.93751707  0.09147488    -0.47700
H808        H  0.27342097  0.54830739  0.11983697     0.05900
C809        C  0.22445019  0.54391850  0.39697191    -0.07900
Cl810      Cl  0.22680527  0.99031726  0.49577780    -0.50900
C811        C  0.14009348  0.92203118  0.41013797     0.41700
H812        H  0.33732019  0.55036227  0.46697924     0.05900
N813        N  0.19331659  0.54488399  0.44238583    -0.47600
C814        C  0.21959236  0.63470148  0.26621401    -0.14300
C815        C  0.21826774  0.61100557  0.28730289     0.07900
C816        C  0.21821674  0.58783171  0.26627249    -0.14300
C817        C  0.21826749  0.58776832  0.22524563    -0.14300
C818        C  0.21843125  0.61090641  0.20414349     0.07900
C819        C  0.21971348  0.63467171  0.22517725    -0.14300
H820        H  0.21985381  0.65300538  0.28136042     0.11900
H821        H  0.21736118  0.56925497  0.28146364     0.11900
H822        H  0.21744247  0.56919017  0.21011371     0.11900
H823        H  0.22004838  0.65299581  0.20997246     0.11900
C824        C  0.37852239  0.74579807  0.22513171    -0.14300
C825        C  0.35737750  0.74944880  0.20417107     0.07900
C826        C  0.33576262  0.75203643  0.22533162    -0.14300
C827        C  0.33595245  0.75212372  0.26632116    -0.14300
C828        C  0.35779581  0.74968493  0.28730392     0.07900
C829        C  0.37875654  0.74595935  0.26619547    -0.14300
H830        H  0.39539702  0.74351092  0.20983971     0.11900
H831        H  0.31910205  0.75480475  0.21027445     0.11900
H832        H  0.31936971  0.75494468  0.28152151     0.11900
H833        H  0.39573466  0.74377145  0.28135116     0.11900
C834        C  0.38145419  0.63258542  0.22523329    -0.14300
C835        C  0.35746475  0.61058927  0.20410771     0.07900
C836        C  0.33289875  0.58910214  0.22510383    -0.14300
C837        C  0.33285629  0.58888692  0.26614769    -0.14300
C838        C  0.35734440  0.61020152  0.28724408     0.07900
C839        C  0.38137922  0.63241445  0.26624462    -0.14300
H840        H  0.40069201  0.64953717  0.21013577     0.11900
H841        H  0.31389987  0.57193051  0.20985607     0.11900
H842        H  0.31387735  0.57162044  0.28129869     0.11900
H843        H  0.40061305  0.64929748  0.28144387     0.11900
C844        C  0.07424661  0.72900353  0.22525249    -0.14300
C845        C  0.09780342  0.73005279  0.20414141     0.07900
C846        C  0.12189388  0.73204595  0.22515733    -0.14300
C847        C  0.12192354  0.73190157  0.26619667    -0.14300
C848        C  0.09789986  0.72984102  0.28728226     0.07900
C849        C  0.07430609  0.72892487  0.26626359    -0.13400
H850        H  0.05537965  0.72755464  0.21013823     0.11900
H851        H  0.14052712  0.73305016  0.20993278     0.11900
H852        H  0.14053837  0.73282153  0.28135065     0.11900
H853        H  0.05543798  0.72742577  0.28145257     0.11900
C854        C  0.11964424  0.89439531  0.22523686    -0.14300
C855        C  0.09759908  0.87042416  0.20413107     0.07900
C856        C  0.07606289  0.84591096  0.22515009    -0.14300
C857        C  0.07589515  0.84586686  0.26619114    -0.14300
C858        C  0.09730121  0.87030446  0.28727494     0.07900
C859        C  0.11951537  0.89432226  0.26625340    -0.14300
H860        H  0.13662957  0.91359925  0.21011935     0.11900
H861        H  0.05884366  0.82693465  0.20992289     0.11900
H862        H  0.05861107  0.82690750  0.28135333     0.11900
H863        H  0.13645599  0.91352298  0.28144249     0.11900
C864        C  0.24238458  0.84983778  0.22530010    -0.14300
C865        C  0.23727170  0.86986775  0.20414344     0.07900
C866        C  0.23131998  0.88949750  0.22510160    -0.14300
C867        C  0.23156848  0.88979829  0.26618861    -0.14300
C868        C  0.23768575  0.87041434  0.28726809     0.07900
C869        C  0.24256314  0.85009134  0.26627496    -0.14300
H870        H  0.24708721  0.83444703  0.21024071     0.11900
H871        H  0.22704999  0.90509269  0.20976986     0.11900
H872        H  0.22745465  0.90554011  0.28139896     0.11900
H873        H  0.24737412  0.83481831  0.28146463     0.11900
C874        C  0.23995940  0.87148914  0.66068534     0.79300
N875        N  0.24065378  0.89436366  0.64105445    -0.79000
C876        C  0.24550059  0.89743090  0.60178800     0.81700
N877        N  0.24951176  0.87730635  0.58165556    -0.79000
C878        C  0.24793440  0.85378917  0.60081777     0.81800
N879        N  0.24319976  0.85100373  0.64020119    -0.80700
C880        C  0.24041083  0.87201640  0.83070279     0.79300
N881        N  0.24230733  0.89526613  0.85102266    -0.79000
C882        C  0.24707727  0.89746622  0.89045935     0.81700
N883        N  0.24979945  0.87621770  0.90976724    -0.79000
C884        C  0.24701694  0.85253636  0.88974262     0.81800
N885        N  0.24233979  0.85059725  0.85050307    -0.80700
C886        C  0.09575366  0.87158361  0.83071975     0.79300
N887        N  0.07240422  0.85032607  0.85102176    -0.79000
C888        C  0.07021596  0.85283941  0.89044636     0.81700
N889        N  0.09156880  0.87671965  0.90980895    -0.79000
C890        C  0.11534160  0.89756090  0.88982343     0.81800
N891        N  0.11729847  0.89484461  0.85056083    -0.80700
C892        C  0.09602172  0.87159151  0.66066965     0.79300
N893        N  0.07309806  0.84946631  0.64100617    -0.79000
C894        C  0.07016753  0.85116775  0.60171321     0.81700
N895        N  0.09044416  0.87520637  0.58155915    -0.79000
C896        C  0.11398283  0.89711079  0.60075968     0.81800
N897        N  0.11668269  0.89521401  0.64017704    -0.80700
C898        C  0.09658678  0.72742231  0.66066732     0.79300
N899        N  0.07293991  0.72449547  0.64029068    -0.79000
C900        C  0.07095345  0.71990841  0.60086755     0.81700
N901        N  0.09280441  0.71827349  0.58154728    -0.79000
C902        C  0.11688040  0.72203260  0.60157797     0.81800
N903        N  0.11865497  0.72663230  0.64088045    -0.80700
C904        C  0.09661695  0.72719144  0.83074051     0.79300
N905        N  0.11786184  0.72517287  0.85111966    -0.79000
C906        C  0.11542364  0.72072653  0.89057980     0.81700
N907        N  0.09161465  0.71834523  0.90991661    -0.79000
C908        C  0.07077302  0.72119437  0.88985250     0.81800
N909        N  0.07341996  0.72564079  0.85053770    -0.80700
C910        C  0.35869598  0.60854571  0.83066547     0.79300
N911        N  0.33753011  0.58510751  0.85094424    -0.79000
C912        C  0.34015483  0.58283158  0.89033285     0.81700
N913        N  0.36405330  0.60418222  0.90966864    -0.79000
C914        C  0.38479992  0.62803344  0.88970804     0.81800
N915        N  0.38197446  0.63007455  0.85049233    -0.80700
C916        C  0.35871211  0.60894909  0.66066347     0.79300
N917        N  0.33665521  0.58595623  0.64101861    -0.79000
C918        C  0.33846578  0.58290457  0.60177545     0.81700
N919        N  0.36254458  0.60313109  0.58164849    -0.79000
C920        C  0.38438685  0.62673511  0.60081783     0.81800
N921        N  0.38238735  0.62955563  0.64019198    -0.80700
C922        C  0.35898560  0.75235504  0.66072761     0.79300
N923        N  0.33843298  0.75555078  0.64032986    -0.79000
C924        C  0.34123383  0.76043383  0.60096477     0.81700
N925        N  0.36479507  0.76215181  0.58174443    -0.79000
C926        C  0.38496474  0.75816916  0.60179371     0.81800
N927        N  0.38191020  0.75322892  0.64102267    -0.80700
C928        C  0.35937702  0.75258409  0.83073100     0.79300
N929        N  0.38271700  0.75473270  0.85107539    -0.79000
C930        C  0.38490585  0.75956102  0.89047801     0.81700
N931        N  0.36358994  0.76216889  0.90975885    -0.79000
C932        C  0.33983545  0.75918851  0.88972584     0.81800
N933        N  0.33786922  0.75438797  0.85049937    -0.80700
C934        C  0.21533885  0.60955063  0.83074689     0.79300
N935        N  0.21369677  0.58630166  0.85052281    -0.79000
C936        C  0.20891978  0.58348116  0.88977971     0.81700
N937        N  0.20583335  0.60419855  0.90980238    -0.79000
C938        C  0.20828735  0.62804883  0.89049840     0.81800
N939        N  0.21305412  0.63065265  0.85110373    -0.80700
C940        C  0.21553140  0.60953624  0.66068697     0.79300
N941        N  0.21258587  0.58587411  0.64032680    -0.79000
C942        C  0.20770325  0.58373922  0.60095835     0.81700
N943        N  0.20580050  0.60545438  0.58167737    -0.79000
C944        C  0.20956256  0.62953650  0.60168343     0.81800
N945        N  0.21444377  0.63145474  0.64092543    -0.80700
C946        C  0.24974341  0.83049926  0.57919554     0.41500
N947        N  0.24345604  0.78793137  0.56495096     0.00400
C948        C  0.28473694  0.74369202  0.89676123    -0.07500
H949        H  0.21702261  0.78767017  0.87173617     0.05900
C950        C  0.13729551  0.70462991  0.94894391    -0.07800
Co951      Co  0.27554110  0.78800831  0.99233670     0.74200
N952        N  0.23877914  0.78309630  0.92266934    -0.27000
Co953      Co  0.22622039  0.73877224  0.92375401     0.74100
C954        C  0.13913204  0.71973371  0.91214707     0.41600
N955        N  0.16771328  0.71275837  0.54238056     0.00000
N956        N  0.18184971  0.72639905  0.92619683     0.00100
N957        N  0.31680505  0.77485005  0.94222115    -0.47800
H958        H  0.27835752  0.85160111  0.52425785     0.05900
N959        N  0.25716567  0.80211081  0.94868444     0.00400
N960        N  0.21374318  0.69437596  0.92614466     0.00200
C961        C  0.20709844  0.65167069  0.91203704     0.41800
N962        N  0.18668973  0.73112333  0.56843146    -0.26500
C963        C  0.31998018  0.77747425  0.54252265    -0.07400
N964        N  0.23703513  0.80230940  0.59144757    -0.47600
N965        N  0.21993954  0.67983813  0.89961167    -0.47800
C966        C  0.31793881  0.76226512  0.57937489     0.41500
N967        N  0.28954370  0.76950785  0.94869999     0.00400
N968        N  0.21849717  0.69924476  0.56846535    -0.26500
N969        N  0.26013041  0.80504878  0.53620200    -0.27000
N970        N  0.20014751  0.68025720  0.54240992     0.00000
H971        H  0.23996859  0.69455779  0.61964941     0.05900
H972        H  0.17856713  0.63080378  0.96706016     0.06000
N973        N  0.27049748  0.75117956  0.92266429    -0.27000
N974        N  0.16483308  0.70974850  0.95502848    -0.26600
N975        N  0.27537086  0.75594797  0.56502694     0.00400
C976        C  0.24691316  0.82784362  0.90994616     0.41800
C977        C  0.17229673  0.73839439  0.59440835    -0.07900
N978        N  0.19711638  0.67735387  0.95498748    -0.26600
H979        H  0.11828929  0.69116413  0.96713282     0.06000
N980        N  0.26262257  0.82941344  0.94220972    -0.47800
H981        H  0.18196083  0.75262089  0.61956960     0.05900
C982        C  0.21009515  0.65441098  0.58137028     0.41600
C983        C  0.26501909  0.83252935  0.54240543    -0.07400
Co984      Co  0.23101089  0.74357043  0.56733315     0.73800
N985        N  0.14037634  0.70714516  0.54891744    -0.47600
C986        C  0.31517139  0.75912663  0.90993937     0.41900
N987        N  0.28973961  0.74956940  0.59159843    -0.47600
Co988      Co  0.18179842  0.69436859  0.99881373     0.73900
C989        C  0.19200164  0.64981521  0.94886305    -0.07900
C990        C  0.23137123  0.79740368  0.89677433    -0.07400
N991        N  0.29250484  0.77257307  0.53625794    -0.27000
N992        N  0.16729401  0.73258999  0.89968133    -0.47700
H993        H  0.27496361  0.72936455  0.87171326     0.05900
C994        C  0.22574412  0.68487262  0.59449159    -0.07900
Cl995      Cl  0.22865484  0.74118768  0.99554217    -0.50900
C996        C  0.14183611  0.72274169  0.58124300     0.41700
H997        H  0.33906238  0.79080044  0.52438578     0.05900
N998        N  0.19452525  0.65292013  0.54899511    -0.47600
C999        C  0.04545908  0.82909963  0.91200299     0.41500
N1000       N  0.50962835  0.78625931  0.92629913     0.00400
C1001       C  0.42414807  0.74200052  0.59463786    -0.07500
H1002       H  0.03576286  0.78606753  0.61975042     0.05900
C1003       C  0.03265544  0.70298195  0.54254362    -0.07800
Co1004     Co  0.47760857  0.78610056  0.99898991     0.74200
N1005       N  0.50951963  0.78126825  0.56859466    -0.27000
Co1006     Co  0.47769807  0.73692670  0.56744965     0.74100
C1007       C  0.04588638  0.71820996  0.57934325     0.41600
N1008       N  0.51028141  0.71109146  0.94888101     0.00000
N1009       N  0.50967599  0.72457575  0.56509349     0.00100
N1010       N  0.42342473  0.77323257  0.54919503    -0.47800
H1011       H  0.03769987  0.84985905  0.96704803     0.05900
N1012       N  0.51007677  0.80022524  0.54256907     0.00400
N1013       N  0.44575301  0.69258650  0.56500680     0.00200
C1014       C  0.40942958  0.65004144  0.57918722     0.41800
N1015       N  0.50962083  0.72945731  0.92287954    -0.26500
C1016       C  0.42282486  0.77576768  0.94898097    -0.07400
N1017       N  0.03025902  0.80089861  0.89964957    -0.47600
N1018       N  0.42492639  0.67821279  0.59147782    -0.47800
C1019       C  0.40966511  0.76071489  0.91209169     0.41500
N1020       N  0.44515195  0.76765040  0.54258774     0.00400
N1021       N  0.44593737  0.69749931  0.92281754    -0.26500
N1022       N  0.50995638  0.80324096  0.95513961    -0.27000
N1023       N  0.44529309  0.67846851  0.94879222     0.00000
H1024       H  0.41960806  0.69295114  0.87188875     0.05900
H1025       H  0.41691568  0.62893735  0.52425228     0.06000
N1026       N  0.44580070  0.74930625  0.56861740    -0.27000
N1027       N  0.51011996  0.70792552  0.53633157    -0.26600
N1028       N  0.44571480  0.75411725  0.92631640     0.00400
C1029       C  0.04588454  0.82617475  0.58148346     0.41800
C1030       C  0.03135801  0.73693109  0.89698028    -0.07900
N1031       N  0.44528939  0.67547965  0.53624697    -0.26600
H1032       H  0.03834958  0.68962665  0.52439545     0.06000
N1033       N  0.03173712  0.82759251  0.54915497    -0.47800
H1034       H  0.03593329  0.75125080  0.87192502     0.05900
C1035       C  0.40931947  0.65274907  0.91000208     0.41600
C1036       C  0.03224019  0.83085425  0.94890824    -0.07400
Co1037     Co  0.47773409  0.74182587  0.92392595     0.73800
N1038       N  0.03216078  0.70570881  0.94238999    -0.47600
C1039       C  0.40931802  0.75762537  0.58153341     0.41900
N1040       N  0.42502819  0.74792623  0.89970326    -0.47600
Co1041     Co  0.47774582  0.69253816  0.99243871     0.73900
C1042       C  0.42266790  0.64800317  0.54241206    -0.07900
C1043       C  0.03116680  0.79570639  0.59460118    -0.07400
N1044       N  0.44525921  0.77069577  0.95516748    -0.27000
N1045       N  0.03044894  0.73094322  0.59163029    -0.47700
H1046       H  0.41960876  0.72777016  0.61978545     0.05900
C1047       C  0.42421186  0.68320465  0.89690959    -0.07900
Cl1048     Cl  0.47771270  0.73934713  0.99568552    -0.50900
C1049       C  0.04629344  0.72144308  0.91013410     0.41700
H1050       H  0.41722142  0.78918528  0.96714445     0.05900
N1051       N  0.42345263  0.65116189  0.94225491    -0.47600
C1052       C  0.24817191  0.92221612  0.91209636     0.41500
N1053       N  0.24151100  0.95822997  0.92639812     0.00400
C1054       C  0.28309083  0.54372770  0.59470750    -0.07500
H1055       H  0.21510920  0.93211084  0.61980759     0.05900
C1056       C  0.13540722  0.93542009  0.54240930    -0.07800
Co1057     Co  0.27355520  0.99019701  0.99905485     0.74200
N1058       N  0.23670693  0.95834981  0.56869063    -0.27000
Co1059     Co  0.22435842  0.99027194  0.56754345     0.74100
C1060       C  0.13737388  0.92209677  0.57913876     0.41600
N1061       N  0.16588973  0.95799182  0.94891000     0.00000
N1062       N  0.17998410  0.95837128  0.56505627     0.00100
N1063       N  0.31501231  0.54441006  0.54923007    -0.47800
H1064       H  0.27673274  0.92985274  0.96708276     0.05900
N1065       N  0.25506960  0.95771614  0.54267458     0.00400
N1066       N  0.21209538  0.52231042  0.56520893     0.00200
C1067       C  0.20591819  0.55863756  0.57943291     0.41800
N1068       N  0.18489793  0.95854088  0.92297414    -0.26500
C1069       C  0.31829452  0.54484614  0.94885498    -0.07400
N1070       N  0.23533032  0.93754803  0.89976685    -0.47600
N1071       N  0.21854083  0.54310435  0.59173915    -0.47800
C1072       C  0.31649253  0.55800298  0.91190391     0.41500
N1073       N  0.28766973  0.52268223  0.54266047     0.00400
N1074       N  0.21695440  0.52221948  0.92293658    -0.26500
N1075       N  0.25814436  0.95781870  0.95520818    -0.27000
N1076       N  0.19864357  0.52297383  0.94894445     0.00000
H1077       H  0.23873939  0.54841689  0.87190199     0.05900
H1078       H  0.17740467  0.55123208  0.52444632     0.06000
N1079       N  0.26869767  0.52207031  0.56870685    -0.27000
N1080       N  0.16291476  0.95800098  0.53630748    -0.26600
N1081       N  0.27368633  0.52215385  0.92631092     0.00400
C1082       C  0.24496700  0.92181633  0.58156936     0.41800
C1083       C  0.17055451  0.93681600  0.89708244    -0.07900
N1084       N  0.19550714  0.52283880  0.53642392    -0.26600
H1085       H  0.11636868  0.92974412  0.52423059     0.06000
N1086       N  0.26060829  0.93595552  0.54925846    -0.47800
H1087       H  0.18026965  0.93216205  0.87207215     0.05900
C1088       C  0.20903165  0.55893256  0.91007363     0.41600
C1089       C  0.26326159  0.93541549  0.94896712    -0.07400
Co1090     Co  0.22924730  0.99028099  0.92402107     0.73800
N1091       N  0.13855076  0.93621837  0.94236118    -0.47600
C1092       C  0.31354687  0.55852596  0.58157230     0.41900
N1093       N  0.28828199  0.54275757  0.89961348    -0.47600
Co1094     Co  0.18004406  0.99046543  0.99252903     0.73900
C1095       C  0.19068212  0.54545205  0.54261965    -0.07900
C1096       C  0.22936174  0.93666526  0.59468168    -0.07400
N1097       N  0.29069510  0.52254131  0.95515445    -0.27000
N1098       N  0.16554415  0.93751705  0.59147492    -0.47700
H1099       H  0.27342098  0.54830734  0.61983699     0.05900
C1100       C  0.22445021  0.54391846  0.89697189    -0.07900
Cl1101     Cl  0.22680521  0.99031721  0.99577779    -0.50900
C1102       C  0.14009347  0.92203116  0.91013798     0.41700
H1103       H  0.33732032  0.55036227  0.96697932     0.05900
N1104       N  0.19331661  0.54488399  0.94238581    -0.47600
C1105       C  0.21959224  0.63470145  0.76621399    -0.14300
C1106       C  0.21826769  0.61100558  0.78730289     0.07900
C1107       C  0.21821681  0.58783178  0.76627251    -0.14300
C1108       C  0.21826751  0.58776830  0.72524566    -0.14300
C1109       C  0.21843124  0.61090638  0.70414349     0.07900
C1110       C  0.21971346  0.63467167  0.72517723    -0.14300
H1111       H  0.21985361  0.65300525  0.78136031     0.11900
H1112       H  0.21736129  0.56925494  0.78146381     0.11900
H1113       H  0.21744247  0.56919016  0.71011380     0.11900
H1114       H  0.22004839  0.65299578  0.70997243     0.11900
C1115       C  0.37852239  0.74579800  0.72513169    -0.14300
C1116       C  0.35737750  0.74944873  0.70417104     0.07900
C1117       C  0.33576263  0.75203638  0.72533160    -0.14300
C1118       C  0.33595246  0.75212369  0.76632114    -0.14300
C1119       C  0.35779583  0.74968492  0.78730392     0.07900
C1120       C  0.37875654  0.74595929  0.76619546    -0.14300
H1121       H  0.39539702  0.74351085  0.70983969     0.11900
H1122       H  0.31910209  0.75480477  0.71027442     0.11900
H1123       H  0.31936976  0.75494473  0.78152150     0.11900
H1124       H  0.39573467  0.74377141  0.78135115     0.11900
C1125       C  0.38145424  0.63258550  0.72523325    -0.14300
C1126       C  0.35746480  0.61058928  0.70410770     0.07900
C1127       C  0.33289879  0.58910212  0.72510380    -0.14300
C1128       C  0.33285636  0.58888696  0.76614768    -0.14300
C1129       C  0.35734443  0.61020156  0.78724407     0.07900
C1130       C  0.38137926  0.63241454  0.76624462    -0.14300
H1131       H  0.40069195  0.64953715  0.71013581     0.11900
H1132       H  0.31390000  0.57193058  0.70985615     0.11900
H1133       H  0.31387737  0.57162043  0.78129873     0.11900
H1134       H  0.40061302  0.64929749  0.78144378     0.11900
C1135       C  0.07424667  0.72900366  0.72525249    -0.14300
C1136       C  0.09780347  0.73005288  0.70414141     0.07900
C1137       C  0.12189385  0.73204593  0.72515733    -0.14300
C1138       C  0.12192353  0.73190153  0.76619664    -0.14300
C1139       C  0.09789985  0.72984096  0.78728224     0.07900
C1140       C  0.07430611  0.72892485  0.76626356    -0.13400
H1141       H  0.05537976  0.72755484  0.71013822     0.11900
H1142       H  0.14052721  0.73305009  0.70993264     0.11900
H1143       H  0.14053835  0.73282150  0.78135061     0.11900
H1144       H  0.05543787  0.72742568  0.78145266     0.11900
C1145       C  0.11964423  0.89439524  0.72523686    -0.14300
C1146       C  0.09759905  0.87042411  0.70413109     0.07900
C1147       C  0.07606278  0.84591093  0.72515007    -0.14300
C1148       C  0.07589512  0.84586680  0.76619114    -0.14300
C1149       C  0.09730122  0.87030440  0.78727493     0.07900
C1150       C  0.11951537  0.89432220  0.76625338    -0.14300
H1151       H  0.13662957  0.91359916  0.71011934     0.11900
H1152       H  0.05884357  0.82693475  0.70992292     0.11900
H1153       H  0.05861106  0.82690744  0.78135336     0.11900
H1154       H  0.13645600  0.91352292  0.78144246     0.11900
C1155       C  0.24238460  0.84983776  0.72530007    -0.14300
C1156       C  0.23727168  0.86986772  0.70414342     0.07900
C1157       C  0.23132000  0.88949746  0.72510160    -0.14300
C1158       C  0.23156847  0.88979827  0.76618859    -0.14300
C1159       C  0.23768579  0.87041435  0.78726808     0.07900
C1160       C  0.24256322  0.85009136  0.76627495    -0.14300
H1161       H  0.24708720  0.83444700  0.71024071     0.11900
H1162       H  0.22705000  0.90509275  0.70976977     0.11900
H1163       H  0.22745465  0.90554007  0.78139892     0.11900
H1164       H  0.24737425  0.83481841  0.78146459     0.11900
C1165       C  0.73995943  0.37148916  0.16068536     0.79300
N1166       N  0.74065377  0.39436365  0.14105447    -0.79000
C1167       C  0.74550059  0.39743090  0.10178802     0.81700
N1168       N  0.74951181  0.37730640  0.08165558    -0.79000
C1169       C  0.74793441  0.35378920  0.10081778     0.81800
N1170       N  0.74319975  0.35100373  0.14020120    -0.80700
C1171       C  0.74041079  0.37201632  0.33070280     0.79300
N1172       N  0.74230729  0.39526605  0.35102266    -0.79000
C1173       C  0.74707723  0.39746617  0.39045935     0.81700
N1174       N  0.74979941  0.37621765  0.40976724    -0.79000
C1175       C  0.74701692  0.35253631  0.38974263     0.81800
N1176       N  0.74233976  0.35059718  0.35050307    -0.80700
C1177       C  0.59575366  0.37158362  0.33071975     0.79300
N1178       N  0.57240424  0.35032606  0.35102178    -0.79000
C1179       C  0.57021598  0.35283941  0.39044637     0.81700
N1180       N  0.59156880  0.37671967  0.40980894    -0.79000
C1181       C  0.61534162  0.39756087  0.38982342     0.81800
N1182       N  0.61729849  0.39484459  0.35056082    -0.80700
C1183       C  0.59602169  0.37159152  0.16066964     0.79300
N1184       N  0.57309796  0.34946631  0.14100615    -0.79000
C1185       C  0.57016751  0.35116776  0.10171317     0.81700
N1186       N  0.59044417  0.37520634  0.08155910    -0.79000
C1187       C  0.61398284  0.39711080  0.10075965     0.81800
N1188       N  0.61668267  0.39521396  0.14017700    -0.80700
C1189       C  0.59658681  0.22742236  0.16066730     0.79300
N1190       N  0.57293992  0.22449547  0.14029061    -0.79000
C1191       C  0.57095349  0.21990845  0.10086750     0.81700
N1192       N  0.59280444  0.21827349  0.08154725    -0.79000
C1193       C  0.61688046  0.22203269  0.10157795     0.81800
N1194       N  0.61865504  0.22663245  0.14088042    -0.80700
C1195       C  0.59661695  0.22719150  0.33074053     0.79300
N1196       N  0.61786187  0.22517297  0.35111969    -0.79000
C1197       C  0.61542362  0.22072649  0.39057979     0.81700
N1198       N  0.59161461  0.21834514  0.40991661    -0.79000
C1199       C  0.57077299  0.22119431  0.38985252     0.81800
N1200       N  0.57341993  0.22564074  0.35053772    -0.80700
C1201       C  0.85869598  0.10854570  0.33066546     0.79300
N1202       N  0.83753013  0.08510752  0.35094420    -0.79000
C1203       C  0.84015483  0.08283158  0.39033282     0.81700
N1204       N  0.86405328  0.10418226  0.40966862    -0.79000
C1205       C  0.88479988  0.12803349  0.38970805     0.81800
N1206       N  0.88197446  0.13007459  0.35049233    -0.80700
C1207       C  0.85871211  0.10894907  0.16066349     0.79300
N1208       N  0.83665519  0.08595624  0.14101862    -0.79000
C1209       C  0.83846579  0.08290456  0.10177546     0.81700
N1210       N  0.86254459  0.10313107  0.08164850    -0.79000
C1211       C  0.88438686  0.12673510  0.10081783     0.81800
N1212       N  0.88238737  0.12955561  0.14019199    -0.80700
C1213       C  0.85898566  0.25235513  0.16072764     0.79300
N1214       N  0.83843297  0.25555074  0.14032986    -0.79000
C1215       C  0.84123381  0.26043375  0.10096476     0.81700
N1216       N  0.86479503  0.26215172  0.08174442    -0.79000
C1217       C  0.88496474  0.25816913  0.10179372     0.81800
N1218       N  0.88191028  0.25322903  0.14102271    -0.80700
C1219       C  0.85937700  0.25258403  0.33073100     0.79300
N1220       N  0.88271696  0.25473260  0.35107538    -0.79000
C1221       C  0.88490585  0.25956097  0.39047800     0.81700
N1222       N  0.86358999  0.26216897  0.40975880    -0.79000
C1223       C  0.83983546  0.25918851  0.38972582     0.81800
N1224       N  0.83786918  0.25438788  0.35049936    -0.80700
C1225       C  0.71533886  0.10955063  0.33074691     0.79300
N1226       N  0.71369675  0.08630164  0.35052285    -0.79000
C1227       C  0.70891977  0.08348116  0.38977975     0.81700
N1228       N  0.70583337  0.10419858  0.40980241    -0.79000
C1229       C  0.70828732  0.12804884  0.39049840     0.81800
N1230       N  0.71305410  0.13065264  0.35110372    -0.80700
C1231       C  0.71553141  0.10953626  0.16068700     0.79300
N1232       N  0.71258586  0.08587413  0.14032682    -0.79000
C1233       C  0.70770329  0.08373927  0.10095837     0.81700
N1234       N  0.70580056  0.10545445  0.08167740    -0.79000
C1235       C  0.70956260  0.12953654  0.10168347     0.81800
N1236       N  0.71444382  0.13145479  0.14092546    -0.80700
C1237       C  0.74974347  0.33049932  0.07919555     0.41500
N1238       N  0.74345608  0.28793142  0.06495096     0.00400
C1239       C  0.78473698  0.24369209  0.39676122    -0.07500
H1240       H  0.71702256  0.28767011  0.37173598     0.05900
C1241       C  0.63729550  0.20462989  0.44894394    -0.07800
Co1242     Co  0.77554111  0.28800829  0.49233672     0.74200
N1243       N  0.73877912  0.28309628  0.42266931    -0.27000
Co1244     Co  0.72622041  0.23877228  0.42375400     0.74100
C1245       C  0.63913201  0.21973363  0.41214701     0.41600
N1246       N  0.66771327  0.21275832  0.04238055     0.00000
N1247       N  0.68184971  0.22639904  0.42619682     0.00100
N1248       N  0.81680506  0.27485002  0.44222121    -0.47800
H1249       H  0.77835750  0.35160104  0.02425795     0.05900
N1250       N  0.75716567  0.30211078  0.44868442     0.00400
N1251       N  0.71374324  0.19437604  0.42614466     0.00200
C1252       C  0.70709847  0.15167075  0.41203704     0.41800
N1253       N  0.68668974  0.23112327  0.06843147    -0.26500
C1254       C  0.81998023  0.27747429  0.04252268    -0.07400
N1255       N  0.73703518  0.30230947  0.09144759    -0.47600
N1256       N  0.71993958  0.17983820  0.39961166    -0.47800
C1257       C  0.81793882  0.26226512  0.07937490     0.41500
N1258       N  0.78954370  0.26950780  0.44870006     0.00400
N1259       N  0.71849717  0.19924474  0.06846534    -0.26500
N1260       N  0.76013044  0.30504880  0.03620202    -0.27000
N1261       N  0.70014751  0.18025718  0.04240993     0.00000
H1262       H  0.73996860  0.19455786  0.11964933     0.05900
H1263       H  0.67856711  0.13080382  0.46706029     0.06000
N1264       N  0.77049750  0.25117957  0.42266430    -0.27000
N1265       N  0.66483312  0.20974853  0.45502848    -0.26600
N1266       N  0.77537089  0.25594802  0.06502696     0.00400
C1267       C  0.74691316  0.32784358  0.40994614     0.41800
C1268       C  0.67229675  0.23839438  0.09440823    -0.07900
N1269       N  0.69711645  0.17735395  0.45498749    -0.26600
H1270       H  0.61828940  0.19116415  0.46713275     0.06000
N1271       N  0.76262260  0.32941341  0.44220967    -0.47800
H1272       H  0.68196101  0.25262112  0.11956974     0.05900
C1273       C  0.71009519  0.15441100  0.08137032     0.41600
C1274       C  0.76501917  0.33252943  0.04240540    -0.07400
Co1275     Co  0.73101090  0.24357042  0.06733315     0.73800
N1276       N  0.64037635  0.20714521  0.04891739    -0.47600
C1277       C  0.81517141  0.25912668  0.40993933     0.41900
N1278       N  0.78973965  0.24956946  0.09159848    -0.47600
Co1279     Co  0.68179845  0.19436860  0.49881374     0.73900
C1280       C  0.69200171  0.14981532  0.44886306    -0.07900
C1281       C  0.73137124  0.29740367  0.39677433    -0.07400
N1282       N  0.79250487  0.27257308  0.03625796    -0.27000
N1283       N  0.66729397  0.23258988  0.39968122    -0.47700
H1284       H  0.77496364  0.22936461  0.37171307     0.05900
C1285       C  0.72574415  0.18487265  0.09449162    -0.07900
Cl1286     Cl  0.72865485  0.24118773  0.49554218    -0.50900
C1287       C  0.64183616  0.22274178  0.08124294     0.41700
H1288       H  0.83906241  0.29080051  0.02438587     0.05900
N1289       N  0.69452526  0.15292011  0.04899516    -0.47600
C1290       C  0.54545909  0.32909965  0.41200299     0.41500
N1291       N  0.00962837  0.28625934  0.42629916     0.00400
C1292       C  0.92414804  0.24200045  0.09463784    -0.07500
H1293       H  0.53576299  0.28606753  0.11975043     0.05900
C1294       C  0.53265541  0.20298190  0.04254359    -0.07800
Co1295     Co  0.97760860  0.28610061  0.49898992     0.74200
N1296       N  0.00951966  0.28126828  0.06859459    -0.27000
Co1297     Co  0.97769807  0.23692672  0.06744964     0.74100
C1298       C  0.54588642  0.21821001  0.07934313     0.41600
N1299       N  0.01028148  0.21109156  0.44888104     0.00000
N1300       N  0.00967596  0.22457572  0.06509341     0.00100
N1301       N  0.92342477  0.27323259  0.04919509    -0.47800
H1302       H  0.53769985  0.34985897  0.46704792     0.05900
N1303       N  0.01007675  0.30022525  0.04256902     0.00400
N1304       N  0.94575302  0.19258651  0.06500683     0.00200
C1305       C  0.90942960  0.15004144  0.07918724     0.41800
N1306       N  0.00962089  0.22945742  0.42287955    -0.26500
C1307       C  0.92282481  0.27576760  0.44898099    -0.07400
N1308       N  0.53025905  0.30089862  0.39964959    -0.47600
N1309       N  0.92492640  0.17821278  0.09147786    -0.47800
C1310       C  0.90966507  0.26071480  0.41209170     0.41500
N1311       N  0.94515196  0.26765040  0.04258777     0.00400
N1312       N  0.94593741  0.19749937  0.42281752    -0.26500
N1313       N  0.00995637  0.30324099  0.45513962    -0.27000
N1314       N  0.94529312  0.17846853  0.44879218     0.00000
H1315       H  0.91960811  0.19295121  0.37188884     0.05900
H1316       H  0.91691579  0.12893750  0.02425240     0.06000
N1317       N  0.94580070  0.24930623  0.06861741    -0.27000
N1318       N  0.01011995  0.20792548  0.03633156    -0.26600
N1319       N  0.94571480  0.25411723  0.42631642     0.00400
C1320       C  0.54588454  0.32617476  0.08148336     0.41800
C1321       C  0.53135804  0.23693112  0.39698024    -0.07900
N1322       N  0.94528942  0.17547968  0.03624703    -0.26600
H1323       H  0.53834954  0.18962659  0.02439545     0.06000
N1324       N  0.53173704  0.32759254  0.04915496    -0.47800
H1325       H  0.53593328  0.25125076  0.37192486     0.05900
C1326       C  0.90931948  0.15274912  0.41000207     0.41600
C1327       C  0.53224022  0.33085430  0.44890827    -0.07400
Co1328     Co  0.97773412  0.24182592  0.42392597     0.73800
N1329       N  0.53216085  0.20570891  0.44239004    -0.47600
C1330       C  0.90931801  0.25762533  0.08153342     0.41900
N1331       N  0.92502817  0.24792616  0.39970329    -0.47600
Co1332     Co  0.97774584  0.19253820  0.49243867     0.73900
C1333       C  0.92266794  0.14800317  0.04241206    -0.07900
C1334       C  0.53116687  0.29570644  0.09460103    -0.07400
N1335       N  0.94525920  0.27069575  0.45516749    -0.27000
N1336       N  0.53044894  0.23094321  0.09163024    -0.47700
H1337       H  0.91960874  0.22777010  0.11978544     0.05900
C1338       C  0.92421188  0.18320471  0.39690959    -0.07900
Cl1339     Cl  0.97771264  0.23934718  0.49568552    -0.50900
C1340       C  0.54629350  0.22144315  0.41013413     0.41700
H1341       H  0.91722139  0.28918521  0.46714444     0.05900
N1342       N  0.92345265  0.15116193  0.44225489    -0.47600
C1343       C  0.74817194  0.42221615  0.41209630     0.41500
N1344       N  0.74151101  0.45823001  0.42639811     0.00400
C1345       C  0.78309084  0.04372769  0.09470751    -0.07500
H1346       H  0.71510922  0.43211083  0.11980761     0.05900
C1347       C  0.63540727  0.43542017  0.04240930    -0.07800
Co1348     Co  0.77355522  0.49019701  0.49905486     0.74200
N1349       N  0.73670689  0.45834974  0.06869058    -0.27000
Co1350     Co  0.72435842  0.49027192  0.06754343     0.74100
C1351       C  0.63737390  0.42209680  0.07913871     0.41600
N1352       N  0.66588971  0.45799178  0.44891004     0.00000
N1353       N  0.67998413  0.45837133  0.06505621     0.00100
N1354       N  0.81501232  0.04441004  0.04923011    -0.47800
H1355       H  0.77673276  0.42985279  0.46708264     0.05900
N1356       N  0.75506954  0.45771607  0.04267451     0.00400
N1357       N  0.71209544  0.02231048  0.06520893     0.00200
C1358       C  0.70591821  0.05863761  0.07943293     0.41800
N1359       N  0.68489792  0.45854090  0.42297415    -0.26500
C1360       C  0.81829455  0.04484620  0.44885499    -0.07400
N1361       N  0.73533038  0.43754810  0.39976681    -0.47600
N1362       N  0.71854089  0.04310442  0.09173915    -0.47800
C1363       C  0.81649254  0.05800298  0.41190384     0.41500
N1364       N  0.78766974  0.02268223  0.04266049     0.00400
N1365       N  0.71695438  0.02221942  0.42293651    -0.26500
N1366       N  0.75814435  0.45781870  0.45520819    -0.27000
N1367       N  0.69864355  0.02297376  0.44894442     0.00000
H1368       H  0.73873941  0.04841689  0.37190193     0.05900
H1369       H  0.67740472  0.05123213  0.02444638     0.06000
N1370       N  0.76869768  0.02207032  0.06870686    -0.27000
N1371       N  0.66291478  0.45800105  0.03630747    -0.26600
N1372       N  0.77368635  0.02215382  0.42631085     0.00400
C1373       C  0.74496705  0.42181635  0.08156940     0.41800
C1374       C  0.67055454  0.43681606  0.39708241    -0.07900
N1375       N  0.69550719  0.02283885  0.03642393    -0.26600
H1376       H  0.61636861  0.42974415  0.02423050     0.06000
N1377       N  0.76060827  0.43595548  0.04925843    -0.47800
H1378       H  0.68026972  0.43216218  0.37207201     0.05900
C1379       C  0.70903163  0.05893252  0.41007363     0.41600
C1380       C  0.76326162  0.43541551  0.44896708    -0.07400
Co1381     Co  0.72924729  0.49028104  0.42402105     0.73800
N1382       N  0.63855075  0.43621832  0.44236119    -0.47600
C1383       C  0.81354688  0.05852596  0.08157231     0.41900
N1384       N  0.78828200  0.04275751  0.39961340    -0.47600
Co1385     Co  0.68004407  0.49046544  0.49252903     0.73900
C1386       C  0.69068216  0.04545211  0.04261965    -0.07900
C1387       C  0.72936174  0.43666523  0.09468166    -0.07400
N1388       N  0.79069512  0.02254133  0.45515445    -0.27000
N1389       N  0.66554418  0.43751711  0.09147489    -0.47700
H1390       H  0.77342100  0.04830732  0.11983707     0.05900
C1391       C  0.72445017  0.04391840  0.39697185    -0.07900
Cl1392     Cl  0.72680527  0.49031732  0.49577780    -0.50900
C1393       C  0.64009349  0.42203117  0.41013792     0.41700
H1394       H  0.83732025  0.05036233  0.46697923     0.05900
N1395       N  0.69331660  0.04488392  0.44238582    -0.47600
C1396       C  0.71959224  0.13470141  0.26621402    -0.14300
C1397       C  0.71826768  0.11100554  0.28730291     0.07900
C1398       C  0.71821678  0.08783172  0.26627253    -0.14300
C1399       C  0.71826750  0.08776828  0.22524566    -0.14300
C1400       C  0.71843128  0.11090640  0.20414352     0.07900
C1401       C  0.71971352  0.13467170  0.22517727    -0.14300
H1402       H  0.71985361  0.15300530  0.28136044     0.11900
H1403       H  0.71736128  0.06925496  0.28146373     0.11900
H1404       H  0.71744243  0.06919017  0.21011379     0.11900
H1405       H  0.72004849  0.15299584  0.20997249     0.11900
C1406       C  0.87852248  0.24579815  0.22513171    -0.14300
C1407       C  0.85737758  0.24944887  0.20417107     0.07900
C1408       C  0.83576270  0.25203650  0.22533162    -0.14300
C1409       C  0.83595253  0.25212380  0.26632115    -0.14300
C1410       C  0.85779589  0.24968501  0.28730392     0.07900
C1411       C  0.87875662  0.24595942  0.26619547    -0.14300
H1412       H  0.89539711  0.24351099  0.20983971     0.11900
H1413       H  0.81910213  0.25480482  0.21027444     0.11900
H1414       H  0.81936979  0.25494476  0.28152151     0.11900
H1415       H  0.89573474  0.24377153  0.28135116     0.11900
C1416       C  0.88145422  0.13258543  0.22523329    -0.14300
C1417       C  0.85746480  0.11058925  0.20410772     0.07900
C1418       C  0.83289880  0.08910216  0.22510384    -0.14300
C1419       C  0.83285634  0.08888691  0.26614768    -0.14300
C1420       C  0.85734445  0.11020152  0.28724407     0.07900
C1421       C  0.88137926  0.13241448  0.26624462    -0.14300
H1422       H  0.90069202  0.14953718  0.21013576     0.11900
H1423       H  0.81389979  0.07193050  0.20985600     0.11900
H1424       H  0.81387739  0.07162040  0.28129872     0.11900
H1425       H  0.90061302  0.14929745  0.28144380     0.11900
C1426       C  0.57424665  0.22900361  0.22525249    -0.14300
C1427       C  0.59780346  0.23005286  0.20414140     0.07900
C1428       C  0.62189391  0.23204601  0.22515733    -0.14300
C1429       C  0.62192356  0.23190160  0.26619666    -0.14300
C1430       C  0.59789986  0.22984100  0.28728226     0.07900
C1431       C  0.57430614  0.22892492  0.26626357    -0.13400
H1432       H  0.55537972  0.22755475  0.21013822     0.11900
H1433       H  0.64052717  0.23305021  0.20993276     0.11900
H1434       H  0.64053840  0.23282159  0.28135064     0.11900
H1435       H  0.55543795  0.22742585  0.28145266     0.11900
C1436       C  0.61964427  0.39439530  0.22523682    -0.14300
C1437       C  0.59759905  0.37042411  0.20413108     0.07900
C1438       C  0.57606284  0.34591094  0.22515011    -0.14300
C1439       C  0.57589516  0.34586682  0.26619116    -0.14300
C1440       C  0.59730123  0.37030444  0.28727493     0.07900
C1441       C  0.61951540  0.39432228  0.26625340    -0.14300
H1442       H  0.63662947  0.41359908  0.21011941     0.11900
H1443       H  0.55884355  0.32693465  0.20992293     0.11900
H1444       H  0.55861114  0.32690747  0.28135338     0.11900
H1445       H  0.63645594  0.41352290  0.28144237     0.11900
C1446       C  0.74238465  0.34983781  0.22530008    -0.14300
C1447       C  0.73727174  0.36986778  0.20414344     0.07900
C1448       C  0.73131995  0.38949743  0.22510164    -0.14300
C1449       C  0.73156833  0.38979818  0.26618865    -0.14300
C1450       C  0.73768572  0.37041427  0.28726809     0.07900
C1451       C  0.74256320  0.35009134  0.26627495    -0.14300
H1452       H  0.74708724  0.33444704  0.21024068     0.11900
H1453       H  0.72704993  0.40509274  0.20976980     0.11900
H1454       H  0.72745446  0.40553984  0.28139891     0.11900
H1455       H  0.74737418  0.33481835  0.28146455     0.11900
C1456       C  0.73995938  0.37148913  0.66068533     0.79300
N1457       N  0.74065373  0.39436362  0.64105443    -0.79000
C1458       C  0.74550059  0.39743090  0.60178799     0.81700
N1459       N  0.74951180  0.37730639  0.58165556    -0.79000
C1460       C  0.74793442  0.35378919  0.60081777     0.81800
N1461       N  0.74319978  0.35100374  0.64020120    -0.80700
C1462       C  0.74041081  0.37201642  0.83070280     0.79300
N1463       N  0.74230739  0.39526619  0.85102264    -0.79000
C1464       C  0.74707733  0.39746628  0.89045933     0.81700
N1465       N  0.74979953  0.37621778  0.90976723    -0.79000
C1466       C  0.74701699  0.35253641  0.88974263     0.81800
N1467       N  0.74233972  0.35059725  0.85050309    -0.80700
C1468       C  0.59575370  0.37158362  0.83071974     0.79300
N1469       N  0.57240430  0.35032605  0.85102175    -0.79000
C1470       C  0.57021601  0.35283938  0.89044634     0.81700
N1471       N  0.59156883  0.37671963  0.90980893    -0.79000
C1472       C  0.61534163  0.39756086  0.88982342     0.81800
N1473       N  0.61729850  0.39484462  0.85056083    -0.80700
C1474       C  0.59602168  0.37159154  0.66066966     0.79300
N1475       N  0.57309799  0.34946630  0.64100617    -0.79000
C1476       C  0.57016750  0.35116776  0.60171321     0.81700
N1477       N  0.59044418  0.37520631  0.58155912    -0.79000
C1478       C  0.61398283  0.39711079  0.60075967     0.81800
N1479       N  0.61668259  0.39521403  0.64017705    -0.80700
C1480       C  0.59658679  0.22742235  0.66066733     0.79300
N1481       N  0.57293995  0.22449555  0.64029069    -0.79000
C1482       C  0.57095345  0.21990846  0.60086757     0.81700
N1483       N  0.59280437  0.21827344  0.58154731    -0.79000
C1484       C  0.61688041  0.22203264  0.60157795     0.81800
N1485       N  0.61865501  0.22663238  0.64088044    -0.80700
C1486       C  0.59661698  0.22719148  0.83074053     0.79300
N1487       N  0.61786188  0.22517292  0.85111967    -0.79000
C1488       C  0.61542362  0.22072643  0.89057977     0.81700
N1489       N  0.59161463  0.21834512  0.90991660    -0.79000
C1490       C  0.57077304  0.22119434  0.88985252     0.81800
N1491       N  0.57341996  0.22564074  0.85053772    -0.80700
C1492       C  0.85869598  0.10854570  0.83066548     0.79300
N1493       N  0.83753013  0.08510750  0.85094424    -0.79000
C1494       C  0.84015486  0.08283155  0.89033284     0.81700
N1495       N  0.86405332  0.10418222  0.90966866    -0.79000
C1496       C  0.88479991  0.12803346  0.88970806     0.81800
N1497       N  0.88197447  0.13007456  0.85049234    -0.80700
C1498       C  0.85871206  0.10894911  0.66066346     0.79300
N1499       N  0.83665518  0.08595622  0.64101861    -0.79000
C1500       C  0.83846578  0.08290453  0.60177545     0.81700
N1501       N  0.86254454  0.10313107  0.58164847    -0.79000
C1502       C  0.88438685  0.12673509  0.60081781     0.81800
N1503       N  0.88238736  0.12955559  0.64019196    -0.80700
C1504       C  0.85898564  0.25235506  0.66072762     0.79300
N1505       N  0.83843296  0.25555067  0.64032984    -0.79000
C1506       C  0.84123381  0.26043375  0.60096476     0.81700
N1507       N  0.86479509  0.26215181  0.58174443    -0.79000
C1508       C  0.88496475  0.25816913  0.60179371     0.81800
N1509       N  0.88191026  0.25322897  0.64102269    -0.80700
C1510       C  0.85937698  0.25258402  0.83073101     0.79300
N1511       N  0.88271697  0.25473270  0.85107540    -0.79000
C1512       C  0.88490581  0.25956099  0.89047802     0.81700
N1513       N  0.86358994  0.26216894  0.90975885    -0.79000
C1514       C  0.83983546  0.25918855  0.88972583     0.81800
N1515       N  0.83786915  0.25438786  0.85049938    -0.80700
C1516       C  0.71533888  0.10955061  0.83074690     0.79300
N1517       N  0.71369672  0.08630160  0.85052281    -0.79000
C1518       C  0.70891969  0.08348110  0.88977971     0.81700
N1519       N  0.70583334  0.10419852  0.90980238    -0.79000
C1520       C  0.70828730  0.12804880  0.89049840     0.81800
N1521       N  0.71305410  0.13065261  0.85110372    -0.80700
C1522       C  0.71553146  0.10953629  0.66068697     0.79300
N1523       N  0.71258588  0.08587412  0.64032680    -0.79000
C1524       C  0.70770329  0.08373927  0.60095835     0.81700
N1525       N  0.70580055  0.10545442  0.58167739    -0.79000
C1526       C  0.70956256  0.12953652  0.60168346     0.81800
N1527       N  0.71444382  0.13145477  0.64092544    -0.80700
C1528       C  0.74974340  0.33049930  0.57919552     0.41500
N1529       N  0.74345604  0.28793142  0.56495095     0.00400
C1530       C  0.78473701  0.24369205  0.89676126    -0.07500
H1531       H  0.71702253  0.28767023  0.87173629     0.05900
C1532       C  0.63729555  0.20462992  0.94894393    -0.07800
Co1533     Co  0.77554110  0.28800828  0.99233670     0.74200
N1534       N  0.73877914  0.28309631  0.92266932    -0.27000
Co1535     Co  0.72622042  0.23877227  0.92375401     0.74100
C1536       C  0.63913203  0.21973365  0.91214703     0.41600
N1537       N  0.66771330  0.21275833  0.54238061     0.00000
N1538       N  0.68184974  0.22639913  0.92619685     0.00100
N1539       N  0.81680510  0.27485012  0.94222114    -0.47800
H1540       H  0.77835754  0.35160112  0.52425799     0.05900
N1541       N  0.75716568  0.30211078  0.94868441     0.00400
N1542       N  0.71374320  0.19437599  0.92614465     0.00200
C1543       C  0.70709840  0.15167068  0.91203702     0.41800
N1544       N  0.68668976  0.23112329  0.56843150    -0.26500
C1545       C  0.81998022  0.27747426  0.54252266    -0.07400
N1546       N  0.73703513  0.30230944  0.59144754    -0.47600
N1547       N  0.71993947  0.17983813  0.89961162    -0.47800
C1548       C  0.81793883  0.26226516  0.57937493     0.41500
N1549       N  0.78954375  0.26950785  0.94870001     0.00400
N1550       N  0.71849724  0.19924481  0.56846534    -0.26500
N1551       N  0.76013045  0.30504884  0.53620200    -0.27000
N1552       N  0.70014756  0.18025722  0.54240991     0.00000
H1553       H  0.73996867  0.19455787  0.61964941     0.05900
H1554       H  0.67856698  0.13080377  0.96706021     0.06000
N1555       N  0.77049752  0.25117955  0.92266430    -0.27000
N1556       N  0.66483313  0.20974854  0.95502850    -0.26600
N1557       N  0.77537090  0.25594803  0.56502693     0.00400
C1558       C  0.74691320  0.32784365  0.90994618     0.41800
C1559       C  0.67229678  0.23839441  0.59440833    -0.07900
N1560       N  0.69711641  0.17735390  0.95498749    -0.26600
H1561       H  0.61828932  0.19116411  0.96713284     0.06000
N1562       N  0.76262262  0.32941343  0.94220971    -0.47800
H1563       H  0.68196092  0.25262099  0.61956948     0.05900
C1564       C  0.71009521  0.15441101  0.58137029     0.41600
C1565       C  0.76501915  0.33252943  0.54240542    -0.07400
Co1566     Co  0.73101093  0.24357046  0.56733314     0.73800
N1567       N  0.64037636  0.20714518  0.54891744    -0.47600
C1568       C  0.81517144  0.25912670  0.90993935     0.41900
N1569       N  0.78973963  0.24956948  0.59159847    -0.47600
Co1570     Co  0.68179843  0.19436856  0.99881373     0.73900
C1571       C  0.69200162  0.14981525  0.94886303    -0.07900
C1572       C  0.73137118  0.29740370  0.89677438    -0.07400
N1573       N  0.79250488  0.27257308  0.53625791    -0.27000
N1574       N  0.66729403  0.23259002  0.89968133    -0.47700
H1575       H  0.77496366  0.22936453  0.87171312     0.05900
C1576       C  0.72574418  0.18487267  0.59449158    -0.07900
Cl1577     Cl  0.72865486  0.24118768  0.99554218    -0.50900
C1578       C  0.64183615  0.22274175  0.58124296     0.41700
H1579       H  0.83906243  0.29080049  0.52438584     0.05900
N1580       N  0.69452531  0.15292018  0.54899512    -0.47600
C1581       C  0.54545913  0.32909964  0.91200297     0.41500
N1582       N  0.00962838  0.28625934  0.92629915     0.00400
C1583       C  0.92414814  0.24200060  0.59463786    -0.07500
H1584       H  0.53576293  0.28606762  0.61975042     0.05900
C1585       C  0.53265546  0.20298201  0.54254363    -0.07800
Co1586     Co  0.97760857  0.28610058  0.99898990     0.74200
N1587       N  0.00951968  0.28126826  0.56859464    -0.27000
Co1588     Co  0.97769808  0.23692673  0.56744965     0.74100
C1589       C  0.54588639  0.21821003  0.57934324     0.41600
N1590       N  0.01028149  0.21109154  0.94888107     0.00000
N1591       N  0.00967596  0.22457573  0.56509348     0.00100
N1592       N  0.92342477  0.27323263  0.54919504    -0.47800
H1593       H  0.53769997  0.34985913  0.96704798     0.05900
N1594       N  0.01007679  0.30022522  0.54256906     0.00400
N1595       N  0.94575300  0.19258652  0.56500679     0.00200
C1596       C  0.90942958  0.15004144  0.57918721     0.41800
N1597       N  0.00962088  0.22945738  0.92287955    -0.26500
C1598       C  0.92282480  0.27576759  0.94898097    -0.07400
N1599       N  0.53025906  0.30089860  0.89964959    -0.47600
N1600       N  0.92492634  0.17821281  0.59147777    -0.47800
C1601       C  0.90966505  0.26071485  0.91209169     0.41500
N1602       N  0.94515198  0.26765049  0.54258774     0.00400
N1603       N  0.94593742  0.19749935  0.92281752    -0.26500
N1604       N  0.00995638  0.30324101  0.95513961    -0.27000
N1605       N  0.94529315  0.17846856  0.94879220     0.00000
H1606       H  0.91960811  0.19295113  0.87188882     0.05900
H1607       H  0.91691575  0.12893738  0.52425227     0.06000
N1608       N  0.94580076  0.24930633  0.56861740    -0.27000
N1609       N  0.01011996  0.20792552  0.53633158    -0.26600
N1610       N  0.94571472  0.25411717  0.92631640     0.00400
C1611       C  0.54588445  0.32617477  0.58148350     0.41800
C1612       C  0.53135804  0.23693106  0.89698026    -0.07900
N1613       N  0.94528943  0.17547967  0.53624701    -0.26600
H1614       H  0.53834967  0.18962673  0.52439552     0.06000
N1615       N  0.53173704  0.32759252  0.54915501    -0.47800
H1616       H  0.53593331  0.25125079  0.87192479     0.05900
C1617       C  0.90931952  0.15274909  0.91000208     0.41600
C1618       C  0.53224026  0.33085429  0.94890821    -0.07400
Co1619     Co  0.97773411  0.24182590  0.92392595     0.73800
N1620       N  0.53216086  0.20570887  0.94239003    -0.47600
C1621       C  0.90931808  0.25762543  0.58153343     0.41900
N1622       N  0.92502808  0.24792613  0.89970327    -0.47600
Co1623     Co  0.97774585  0.19253821  0.99243871     0.73900
C1624       C  0.92266796  0.14800320  0.54241209    -0.07900
C1625       C  0.53116685  0.29570643  0.59460118    -0.07400
N1626       N  0.94525913  0.27069570  0.95516749    -0.27000
N1627       N  0.53044890  0.23094324  0.59163030    -0.47700
H1628       H  0.91960886  0.22777023  0.61978546     0.05900
C1629       C  0.92421190  0.18320467  0.89690957    -0.07900
Cl1630     Cl  0.97771265  0.23934717  0.99568552    -0.50900
C1631       C  0.54629351  0.22144311  0.91013411     0.41700
H1632       H  0.91722136  0.28918533  0.96714453     0.05900
N1633       N  0.92345269  0.15116193  0.94225491    -0.47600
C1634       C  0.74817188  0.42221613  0.91209635     0.41500
N1635       N  0.74151094  0.45822996  0.92639814     0.00400
C1636       C  0.78309085  0.04372773  0.59470748    -0.07500
H1637       H  0.71510916  0.43211083  0.61980751     0.05900
C1638       C  0.63540719  0.43542014  0.54240931    -0.07800
Co1639     Co  0.77355521  0.49019696  0.99905485     0.74200
N1640       N  0.73670685  0.45834975  0.56869058    -0.27000
Co1641     Co  0.72435840  0.49027189  0.56754343     0.74100
C1642       C  0.63737389  0.42209675  0.57913874     0.41600
N1643       N  0.66588974  0.45799176  0.94891006     0.00000
N1644       N  0.67998409  0.45837129  0.56505624     0.00100
N1645       N  0.81501229  0.04441001  0.54923007    -0.47800
H1646       H  0.77673282  0.42985276  0.96708271     0.05900
N1647       N  0.75506959  0.45771616  0.54267458     0.00400
N1648       N  0.71209546  0.02231047  0.56520891     0.00200
C1649       C  0.70591821  0.05863758  0.57943293     0.41800
N1650       N  0.68489793  0.45854087  0.92297416    -0.26500
C1651       C  0.81829454  0.04484616  0.94885501    -0.07400
N1652       N  0.73533026  0.43754802  0.89976687    -0.47600
N1653       N  0.71854089  0.04310440  0.59173914    -0.47800
C1654       C  0.81649255  0.05800294  0.91190387     0.41500
N1655       N  0.78766972  0.02268219  0.54266050     0.00400
N1656       N  0.71695437  0.02221943  0.92293657    -0.26500
N1657       N  0.75814433  0.45781868  0.95520818    -0.27000
N1658       N  0.69864358  0.02297378  0.94894445     0.00000
H1659       H  0.73873938  0.04841682  0.87190196     0.05900
H1660       H  0.67740473  0.05123211  0.52444631     0.06000
N1661       N  0.76869767  0.02207033  0.56870687    -0.27000
N1662       N  0.66291475  0.45800103  0.53630750    -0.26600
N1663       N  0.77368634  0.02215383  0.92631092     0.00400
C1664       C  0.74496704  0.42181637  0.58156940     0.41800
C1665       C  0.67055454  0.43681601  0.89708242    -0.07900
N1666       N  0.69550720  0.02283883  0.53642391    -0.26600
H1667       H  0.61636876  0.42974423  0.52423073     0.06000
N1668       N  0.76060835  0.43595560  0.54925852    -0.47800
H1669       H  0.68026969  0.43216213  0.87207205     0.05900
C1670       C  0.70903162  0.05893251  0.91007363     0.41600
C1671       C  0.76326158  0.43541550  0.94896706    -0.07400
Co1672     Co  0.72924727  0.49028101  0.92402109     0.73800
N1673       N  0.63855077  0.43621829  0.94236121    -0.47600
C1674       C  0.81354687  0.05852594  0.58157228     0.41900
N1675       N  0.78828202  0.04275754  0.89961343    -0.47600
Co1676     Co  0.68004408  0.49046544  0.99252903     0.73900
C1677       C  0.69068217  0.04545208  0.54261964    -0.07900
C1678       C  0.72936167  0.43666522  0.59468165    -0.07400
N1679       N  0.79069509  0.02254135  0.95515447    -0.27000
N1680       N  0.66554417  0.43751705  0.59147489    -0.47700
H1681       H  0.77342104  0.04830743  0.61983698     0.05900
C1682       C  0.72445017  0.04391839  0.89697188    -0.07900
Cl1683     Cl  0.72680527  0.49031727  0.99577779    -0.50900
C1684       C  0.64009350  0.42203114  0.91013795     0.41700
H1685       H  0.83732026  0.05036224  0.96697926     0.05900
N1686       N  0.69331662  0.04488398  0.94238585    -0.47600
C1687       C  0.71959223  0.13470140  0.76621399    -0.14300
C1688       C  0.71826770  0.11100555  0.78730290     0.07900
C1689       C  0.71821669  0.08783168  0.76627251    -0.14300
C1690       C  0.71826747  0.08776827  0.72524565    -0.14300
C1691       C  0.71843126  0.11090638  0.70414349     0.07900
C1692       C  0.71971341  0.13467166  0.72517723    -0.14300
H1693       H  0.71985364  0.15300534  0.78136044     0.11900
H1694       H  0.71736111  0.06925485  0.78146376     0.11900
H1695       H  0.71744246  0.06919016  0.71011379     0.11900
H1696       H  0.72004831  0.15299567  0.70997253     0.11900
C1697       C  0.87852245  0.24579810  0.72513169    -0.14300
C1698       C  0.85737755  0.24944881  0.70417105     0.07900
C1699       C  0.83576265  0.25203643  0.72533160    -0.14300
C1700       C  0.83595250  0.25212374  0.76632114    -0.14300
C1701       C  0.85779586  0.24968496  0.78730391     0.07900
C1702       C  0.87875660  0.24595937  0.76619545    -0.14300
H1703       H  0.89539708  0.24351094  0.70983968     0.11900
H1704       H  0.81910210  0.25480474  0.71027446     0.11900
H1705       H  0.81936975  0.25494470  0.78152153     0.11900
H1706       H  0.89573472  0.24377148  0.78135113     0.11900
C1707       C  0.88145423  0.13258540  0.72523328    -0.14300
C1708       C  0.85746476  0.11058929  0.70410770     0.07900
C1709       C  0.83289872  0.08910221  0.72510381    -0.14300
C1710       C  0.83285626  0.08888699  0.76614769    -0.14300
C1711       C  0.85734443  0.11020151  0.78724407     0.07900
C1712       C  0.88137929  0.13241446  0.76624463    -0.14300
H1713       H  0.90069207  0.14953716  0.71013575     0.11900
H1714       H  0.81389982  0.07193065  0.70985606     0.11900
H1715       H  0.81387730  0.07162055  0.78129869     0.11900
H1716       H  0.90061296  0.14929733  0.78144372     0.11900
C1717       C  0.57424658  0.22900355  0.72525253    -0.14300
C1718       C  0.59780343  0.23005281  0.70414144     0.07900
C1719       C  0.62189388  0.23204595  0.72515732    -0.14300
C1720       C  0.62192357  0.23190158  0.76619665    -0.14300
C1721       C  0.59789991  0.22984105  0.78728227     0.07900
C1722       C  0.57430613  0.22892490  0.76626365    -0.13400
H1723       H  0.55537979  0.22755467  0.71013845     0.11900
H1724       H  0.64052712  0.23305012  0.70993273     0.11900
H1725       H  0.64053839  0.23282152  0.78135059     0.11900
H1726       H  0.55543800  0.22742579  0.78145271     0.11900
C1727       C  0.61964426  0.39439529  0.72523682    -0.14300
C1728       C  0.59759902  0.37042414  0.70413109     0.07900
C1729       C  0.57606281  0.34591096  0.72515010    -0.14300
C1730       C  0.57589518  0.34586685  0.76619116    -0.14300
C1731       C  0.59730128  0.37030446  0.78727493     0.07900
C1732       C  0.61951542  0.39432225  0.76625336    -0.14300
H1733       H  0.63662949  0.41359912  0.71011934     0.11900
H1734       H  0.55884356  0.32693472  0.70992295     0.11900
H1735       H  0.55861115  0.32690750  0.78135339     0.11900
H1736       H  0.63645607  0.41352300  0.78144242     0.11900
C1737       C  0.74238460  0.34983780  0.72530008    -0.14300
C1738       C  0.73727174  0.36986779  0.70414343     0.07900
C1739       C  0.73132003  0.38949754  0.72510158    -0.14300
C1740       C  0.73156844  0.38979832  0.76618862    -0.14300
C1741       C  0.73768576  0.37041437  0.78726808     0.07900
C1742       C  0.74256310  0.35009133  0.76627495    -0.14300
H1743       H  0.74708717  0.33444701  0.71024070     0.11900
H1744       H  0.72705004  0.40509275  0.70976983     0.11900
H1745       H  0.72745459  0.40553994  0.78139879     0.11900
H1746       H  0.74737400  0.33481823  0.78146465     0.11900
C1747       C  0.73995944  0.87148915  0.16068536     0.79300
N1748       N  0.74065376  0.89436363  0.14105447    -0.79000
C1749       C  0.74550053  0.89743088  0.10178800     0.81700
N1750       N  0.74951169  0.87730633  0.08165554    -0.79000
C1751       C  0.74793440  0.85378919  0.10081776     0.81800
N1752       N  0.74319984  0.85100376  0.14020120    -0.80700
C1753       C  0.74041084  0.87201642  0.33070280     0.79300
N1754       N  0.74230728  0.89526613  0.35102265    -0.79000
C1755       C  0.74707724  0.89746622  0.39045933     0.81700
N1756       N  0.74979952  0.87621777  0.40976722    -0.79000
C1757       C  0.74701696  0.85253639  0.38974265     0.81800
N1758       N  0.74233976  0.85059726  0.35050309    -0.80700
C1759       C  0.59575365  0.87158365  0.33071975     0.79300
N1760       N  0.57240421  0.85032610  0.35102176    -0.79000
C1761       C  0.57021596  0.85283944  0.39044636     0.81700
N1762       N  0.59156883  0.87671963  0.40980897    -0.79000
C1763       C  0.61534162  0.89756089  0.38982343     0.81800
N1764       N  0.61729844  0.89484465  0.35056083    -0.80700
C1765       C  0.59602168  0.87159156  0.16066964     0.79300
N1766       N  0.57309803  0.84946629  0.14100613    -0.79000
C1767       C  0.57016753  0.85116775  0.10171317     0.81700
N1768       N  0.59044416  0.87520634  0.08155909    -0.79000
C1769       C  0.61398284  0.89711078  0.10075964     0.81800
N1770       N  0.61668264  0.89521401  0.14017699    -0.80700
C1771       C  0.59658679  0.72742237  0.16066730     0.79300
N1772       N  0.57293994  0.72449553  0.14029060    -0.79000
C1773       C  0.57095350  0.71990848  0.10086749     0.81700
N1774       N  0.59280448  0.71827354  0.08154724    -0.79000
C1775       C  0.61688045  0.72203266  0.10157797     0.81800
N1776       N  0.61865500  0.72663236  0.14088045    -0.80700
C1777       C  0.59661698  0.72719146  0.33074052     0.79300
N1778       N  0.61786187  0.72517290  0.35111966    -0.79000
C1779       C  0.61542363  0.72072642  0.39057975     0.81700
N1780       N  0.59161463  0.71834511  0.40991661    -0.79000
C1781       C  0.57077305  0.72119434  0.38985254     0.81800
N1782       N  0.57341995  0.72564072  0.35053773    -0.80700
C1783       C  0.85869597  0.60854572  0.33066547     0.79300
N1784       N  0.83753010  0.58510756  0.35094422    -0.79000
C1785       C  0.84015483  0.58283160  0.39033283     0.81700
N1786       N  0.86405327  0.60418228  0.40966864    -0.79000
C1787       C  0.88479992  0.62803348  0.38970806     0.81800
N1788       N  0.88197450  0.63007455  0.35049232    -0.80700
C1789       C  0.85871207  0.60894910  0.16066348     0.79300
N1790       N  0.83665520  0.58595618  0.14101864    -0.79000
C1791       C  0.83846580  0.58290453  0.10177548     0.81700
N1792       N  0.86254455  0.60313106  0.08164850    -0.79000
C1793       C  0.88438682  0.62673513  0.10081783     0.81800
N1794       N  0.88238731  0.62955563  0.14019198    -0.80700
C1795       C  0.85898563  0.75235509  0.16072765     0.79300
N1796       N  0.83843300  0.75555079  0.14032986    -0.79000
C1797       C  0.84123384  0.76043378  0.10096477     0.81700
N1798       N  0.86479508  0.76215179  0.08174444    -0.79000
C1799       C  0.88496473  0.75816912  0.10179375     0.81800
N1800       N  0.88191021  0.75322893  0.14102271    -0.80700
C1801       C  0.85937696  0.75258400  0.33073099     0.79300
N1802       N  0.88271699  0.75473271  0.35107533    -0.79000
C1803       C  0.88490588  0.75956107  0.39047796     0.81700
N1804       N  0.86358999  0.76216898  0.40975880    -0.79000
C1805       C  0.83983547  0.75918853  0.38972583     0.81800
N1806       N  0.83786914  0.75438784  0.35049939    -0.80700
C1807       C  0.71533887  0.60955061  0.33074691     0.79300
N1808       N  0.71369665  0.58630157  0.35052283    -0.79000
C1809       C  0.70891964  0.58348109  0.38977973     0.81700
N1810       N  0.70583329  0.60419853  0.40980239    -0.79000
C1811       C  0.70828735  0.62804884  0.39049841     0.81800
N1812       N  0.71305418  0.63065265  0.35110374    -0.80700
C1813       C  0.71553148  0.60953633  0.16068696     0.79300
N1814       N  0.71258602  0.58587422  0.14032678    -0.79000
C1815       C  0.70770332  0.58373928  0.10095837     0.81700
N1816       N  0.70580049  0.60545440  0.08167739    -0.79000
C1817       C  0.70956253  0.62953652  0.10168345     0.81800
N1818       N  0.71444376  0.63145478  0.14092543    -0.80700
C1819       C  0.74974345  0.83049930  0.07919553     0.41500
N1820       N  0.74345612  0.78793143  0.06495098     0.00400
C1821       C  0.78473698  0.74369204  0.39676128    -0.07500
H1822       H  0.71702254  0.78767017  0.37173613     0.05900
C1823       C  0.63729550  0.70462995  0.44894390    -0.07800
Co1824     Co  0.77554108  0.78800827  0.49233672     0.74200
N1825       N  0.73877913  0.78309631  0.42266935    -0.27000
Co1826     Co  0.72622039  0.73877226  0.42375404     0.74100
C1827       C  0.63913201  0.71973364  0.41214699     0.41600
N1828       N  0.66771331  0.71275840  0.04238054     0.00000
N1829       N  0.68184969  0.72639909  0.42619684     0.00100
N1830       N  0.81680509  0.77485009  0.44222116    -0.47800
H1831       H  0.77835753  0.85160107  0.02425798     0.05900
N1832       N  0.75716567  0.80211081  0.44868447     0.00400
N1833       N  0.71374319  0.69437600  0.42614466     0.00200
C1834       C  0.70709849  0.65167074  0.41203706     0.41800
N1835       N  0.68668979  0.73112334  0.06843144    -0.26500
C1836       C  0.81998026  0.77747425  0.04252265    -0.07400
N1837       N  0.73703520  0.80230945  0.09144757    -0.47600
N1838       N  0.71993957  0.67983819  0.39961170    -0.47800
C1839       C  0.81793887  0.76226515  0.07937491     0.41500
N1840       N  0.78954371  0.76950784  0.44870001     0.00400
N1841       N  0.71849721  0.69924482  0.06846536    -0.26500
N1842       N  0.76013050  0.80504884  0.03620203    -0.27000
N1843       N  0.70014756  0.68025727  0.04240992     0.00000
H1844       H  0.73996856  0.69455784  0.11964949     0.05900
H1845       H  0.67856705  0.63080376  0.46706021     0.06000
N1846       N  0.77049750  0.75117955  0.42266432    -0.27000
N1847       N  0.66483307  0.70974854  0.45502850    -0.26600
N1848       N  0.77537094  0.75594801  0.06502692     0.00400
C1849       C  0.74691325  0.82784366  0.40994614     0.41800
C1850       C  0.67229680  0.73839442  0.09440827    -0.07900
N1851       N  0.69711635  0.67735388  0.45498748    -0.26600
H1852       H  0.61828925  0.69116416  0.46713280     0.06000
N1853       N  0.76262265  0.82941345  0.44220972    -0.47800
H1854       H  0.68196101  0.75262109  0.11956964     0.05900
C1855       C  0.71009519  0.65441103  0.08137028     0.41600
C1856       C  0.76501920  0.83252944  0.04240543    -0.07400
Co1857     Co  0.73101096  0.74357047  0.06733314     0.73800
N1858       N  0.64037637  0.70714520  0.04891745    -0.47600
C1859       C  0.81517142  0.75912666  0.40993938     0.41900
N1860       N  0.78973969  0.74956946  0.09159846    -0.47600
Co1861     Co  0.68179837  0.69436857  0.49881374     0.73900
C1862       C  0.69200165  0.64981526  0.44886302    -0.07900
C1863       C  0.73137126  0.79740373  0.39677439    -0.07400
N1864       N  0.79250492  0.77257307  0.03625791    -0.27000
N1865       N  0.66729400  0.73258995  0.39968125    -0.47700
H1866       H  0.77496364  0.72936454  0.37171313     0.05900
C1867       C  0.72574412  0.68487266  0.09449164    -0.07900
Cl1868     Cl  0.72865486  0.74118764  0.49554218    -0.50900
C1869       C  0.64183618  0.72274174  0.08124301     0.41700
H1870       H  0.83906249  0.79080048  0.02438586     0.05900
N1871       N  0.69452528  0.65292021  0.04899512    -0.47600
C1872       C  0.54545911  0.82909966  0.41200299     0.41500
N1873       N  0.00962835  0.78625934  0.42629916     0.00400
C1874       C  0.92414811  0.74200057  0.09463788    -0.07500
H1875       H  0.53576310  0.78606757  0.11975035     0.05900
C1876       C  0.53265546  0.70298198  0.04254355    -0.07800
Co1877     Co  0.97760856  0.78610060  0.49898992     0.74200
N1878       N  0.00951968  0.78126827  0.06859460    -0.27000
Co1879     Co  0.97769811  0.73692673  0.06744966     0.74100
C1880       C  0.54588645  0.71821005  0.07934311     0.41600
N1881       N  0.01028147  0.71109153  0.44888103     0.00000
N1882       N  0.00967601  0.72457575  0.06509343     0.00100
N1883       N  0.92342473  0.77323259  0.04919505    -0.47800
H1884       H  0.53769995  0.84985914  0.46704802     0.05900
N1885       N  0.01007675  0.80022522  0.04256902     0.00400
N1886       N  0.94575306  0.69258650  0.06500688     0.00200
C1887       C  0.90942953  0.65004146  0.07918720     0.41800
N1888       N  0.00962086  0.72945735  0.42287953    -0.26500
C1889       C  0.92282476  0.77576762  0.44898098    -0.07400
N1890       N  0.53025910  0.80089861  0.39964962    -0.47600
N1891       N  0.92492637  0.67821281  0.09147783    -0.47800
C1892       C  0.90966505  0.76071486  0.41209169     0.41500
N1893       N  0.94515194  0.76765044  0.04258776     0.00400
N1894       N  0.94593745  0.69749936  0.42281753    -0.26500
N1895       N  0.00995638  0.80324101  0.45513963    -0.27000
N1896       N  0.94529322  0.67846856  0.44879217     0.00000
H1897       H  0.91960818  0.69295117  0.37188884     0.05900
H1898       H  0.91691562  0.62893735  0.02425223     0.06000
N1899       N  0.94580075  0.74930631  0.06861743    -0.27000
N1900       N  0.01011997  0.70792551  0.03633157    -0.26600
N1901       N  0.94571475  0.75411725  0.42631642     0.00400
C1902       C  0.54588454  0.82617476  0.08148336     0.41800
C1903       C  0.53135798  0.73693103  0.39698025    -0.07900
N1904       N  0.94528943  0.67547965  0.03624706    -0.26600
H1905       H  0.53834961  0.68962669  0.02439545     0.06000
N1906       N  0.53173706  0.82759253  0.04915496    -0.47800
H1907       H  0.53593325  0.75125076  0.37192479     0.05900
C1908       C  0.90931957  0.65274910  0.41000208     0.41600
C1909       C  0.53224027  0.83085427  0.44890825    -0.07400
Co1910     Co  0.97773409  0.74182591  0.42392597     0.73800
N1911       N  0.53216084  0.70570886  0.44239003    -0.47600
C1912       C  0.90931804  0.75762539  0.08153345     0.41900
N1913       N  0.92502811  0.74792617  0.39970330    -0.47600
Co1914     Co  0.97774589  0.69253821  0.49243867     0.73900
C1915       C  0.92266790  0.64800320  0.04241210    -0.07900
C1916       C  0.53116692  0.79570643  0.09460100    -0.07400
N1917       N  0.94525915  0.77069579  0.45516748    -0.27000
N1918       N  0.53044896  0.73094325  0.09163023    -0.47700
H1919       H  0.91960878  0.72777020  0.11978548     0.05900
C1920       C  0.92421196  0.68320468  0.39690957    -0.07900
Cl1921     Cl  0.97771268  0.73934716  0.49568552    -0.50900
C1922       C  0.54629348  0.72144309  0.41013412     0.41700
H1923       H  0.91722124  0.78918524  0.46714456     0.05900
N1924       N  0.92345275  0.65116193  0.44225489    -0.47600
C1925       C  0.74817187  0.92221611  0.41209632     0.41500
N1926       N  0.74151098  0.95822995  0.42639815     0.00400
C1927       C  0.78309084  0.54372775  0.09470747    -0.07500
H1928       H  0.71510922  0.93211087  0.11980753     0.05900
C1929       C  0.63540719  0.93542012  0.04240931    -0.07800
Co1930     Co  0.77355525  0.99019696  0.49905486     0.74200
N1931       N  0.73670686  0.95834976  0.06869056    -0.27000
Co1932     Co  0.72435837  0.99027191  0.06754342     0.74100
C1933       C  0.63737386  0.92209677  0.07913872     0.41600
N1934       N  0.66588977  0.95799180  0.44891005     0.00000
N1935       N  0.67998406  0.95837131  0.06505620     0.00100
N1936       N  0.81501231  0.54441005  0.04923009    -0.47800
H1937       H  0.77673280  0.92985273  0.46708252     0.05900
N1938       N  0.75506960  0.95771614  0.04267454     0.00400
N1939       N  0.71209544  0.52231045  0.06520893     0.00200
C1940       C  0.70591814  0.55863754  0.07943297     0.41800
N1941       N  0.68489792  0.95854087  0.42297419    -0.26500
C1942       C  0.81829448  0.54484615  0.44885499    -0.07400
N1943       N  0.73533028  0.93754803  0.39976687    -0.47600
N1944       N  0.71854082  0.54310435  0.09173918    -0.47800
C1945       C  0.81649255  0.55800298  0.41190385     0.41500
N1946       N  0.78766974  0.52268220  0.04266051     0.00400
N1947       N  0.71695436  0.52221950  0.42293651    -0.26500
N1948       N  0.75814438  0.95781865  0.45520818    -0.27000
N1949       N  0.69864354  0.52297381  0.44894442     0.00000
H1950       H  0.73873946  0.54841706  0.37190187     0.05900
H1951       H  0.67740473  0.55123215  0.02444624     0.06000
N1952       N  0.76869770  0.52207033  0.06870688    -0.27000
N1953       N  0.66291471  0.95800100  0.03630746    -0.26600
N1954       N  0.77368632  0.52215386  0.42631083     0.00400
C1955       C  0.74496705  0.92181638  0.08156941     0.41800
C1956       C  0.67055454  0.93681600  0.39708246    -0.07900
N1957       N  0.69550717  0.52283883  0.03642392    -0.26600
H1958       H  0.61636855  0.92974408  0.02423053     0.06000
N1959       N  0.76060831  0.93595555  0.04925848    -0.47800
H1960       H  0.68026966  0.93216206  0.37207220     0.05900
C1961       C  0.70903161  0.55893257  0.41007367     0.41600
C1962       C  0.76326163  0.93541546  0.44896702    -0.07400
Co1963     Co  0.72924731  0.99028098  0.42402108     0.73800
N1964       N  0.63855075  0.93621834  0.44236120    -0.47600
C1965       C  0.81354688  0.55852595  0.08157232     0.41900
N1966       N  0.78828202  0.54275755  0.39961338    -0.47600
Co1967     Co  0.68004411  0.99046541  0.49252904     0.73900
C1968       C  0.69068216  0.54545207  0.04261965    -0.07900
C1969       C  0.72936172  0.93666526  0.09468165    -0.07400
N1970       N  0.79069506  0.52254134  0.45515444    -0.27000
N1971       N  0.66554413  0.93751708  0.09147489    -0.47700
H1972       H  0.77342099  0.54830743  0.11983694     0.05900
C1973       C  0.72445016  0.54391850  0.39697189    -0.07900
Cl1974     Cl  0.72680531  0.99031726  0.49577780    -0.50900
C1975       C  0.64009348  0.92203119  0.41013797     0.41700
H1976       H  0.83732027  0.55036226  0.46697940     0.05900
N1977       N  0.69331658  0.54488399  0.44238585    -0.47600
C1978       C  0.71959231  0.63470147  0.26621400    -0.14300
C1979       C  0.71826769  0.61100557  0.28730289     0.07900
C1980       C  0.71821669  0.58783171  0.26627250    -0.14300
C1981       C  0.71826747  0.58776833  0.22524565    -0.14300
C1982       C  0.71843123  0.61090641  0.20414349     0.07900
C1983       C  0.71971346  0.63467172  0.22517723    -0.14300
H1984       H  0.71985379  0.65300539  0.28136041     0.11900
H1985       H  0.71736116  0.56925498  0.28146365     0.11900
H1986       H  0.71744249  0.56919016  0.21011369     0.11900
H1987       H  0.72004840  0.65299579  0.20997249     0.11900
C1988       C  0.87852245  0.74579808  0.22513171    -0.14300
C1989       C  0.85737753  0.74944880  0.20417107     0.07900
C1990       C  0.83576263  0.75203642  0.22533160    -0.14300
C1991       C  0.83595245  0.75212371  0.26632114    -0.14300
C1992       C  0.85779580  0.74968493  0.28730392     0.07900
C1993       C  0.87875655  0.74595934  0.26619549    -0.14300
H1994       H  0.89539699  0.74351094  0.20983985     0.11900
H1995       H  0.81910209  0.75480473  0.21027442     0.11900
H1996       H  0.81936969  0.75494468  0.28152149     0.11900
H1997       H  0.89573465  0.74377144  0.28135120     0.11900
C1998       C  0.88145418  0.63258543  0.22523328    -0.14300
C1999       C  0.85746473  0.61058929  0.20410771     0.07900
C2000       C  0.83289873  0.58910216  0.22510384    -0.14300
C2001       C  0.83285630  0.58888694  0.26614771    -0.14300
C2002       C  0.85734446  0.61020150  0.28724407     0.07900
C2003       C  0.88137929  0.63241442  0.26624461    -0.14300
H2004       H  0.90069198  0.64953722  0.21013572     0.11900
H2005       H  0.81389983  0.57193055  0.20985609     0.11900
H2006       H  0.81387736  0.57162051  0.28129871     0.11900
H2007       H  0.90061307  0.64929738  0.28144378     0.11900
C2008       C  0.57424660  0.72900357  0.22525249    -0.14300
C2009       C  0.59780347  0.73005290  0.20414141     0.07900
C2010       C  0.62189390  0.73204599  0.22515731    -0.14300
C2011       C  0.62192360  0.73190157  0.26619667    -0.14300
C2012       C  0.59789990  0.72984103  0.28728225     0.07900
C2013       C  0.57430616  0.72892488  0.26626359    -0.13400
H2014       H  0.55537977  0.72755463  0.21013838     0.11900
H2015       H  0.64052715  0.73305015  0.20993273     0.11900
H2016       H  0.64053827  0.73282148  0.28135050     0.11900
H2017       H  0.55543788  0.72742572  0.28145271     0.11900
C2018       C  0.61964424  0.89439533  0.22523685    -0.14300
C2019       C  0.59759904  0.87042418  0.20413108     0.07900
C2020       C  0.57606289  0.84591097  0.22515011    -0.14300
C2021       C  0.57589524  0.84586683  0.26619115    -0.14300
C2022       C  0.59730130  0.87030443  0.28727495     0.07900
C2023       C  0.61951546  0.89432226  0.26625340    -0.14300
H2024       H  0.63662952  0.91359929  0.21011932     0.11900
H2025       H  0.55884363  0.82693468  0.20992293     0.11900
H2026       H  0.55861119  0.82690746  0.28135337     0.11900
H2027       H  0.63645604  0.91352293  0.28144243     0.11900
C2028       C  0.74238470  0.84983782  0.22530009    -0.14300
C2029       C  0.73727177  0.86986779  0.20414344     0.07900
C2030       C  0.73131998  0.88949748  0.22510160    -0.14300
C2031       C  0.73156847  0.88979829  0.26618861    -0.14300
C2032       C  0.73768584  0.87041440  0.28726809     0.07900
C2033       C  0.74256324  0.85009143  0.26627495    -0.14300
H2034       H  0.74708727  0.83444713  0.21024081     0.11900
H2035       H  0.72704990  0.90509260  0.20976985     0.11900
H2036       H  0.72745458  0.90554005  0.28139895     0.11900
H2037       H  0.74737422  0.83481828  0.28146475     0.11900
C2038       C  0.73995944  0.87148915  0.66068535     0.79300
N2039       N  0.74065385  0.89436368  0.64105446    -0.79000
C2040       C  0.74550061  0.89743091  0.60178801     0.81700
N2041       N  0.74951170  0.87730631  0.58165554    -0.79000
C2042       C  0.74793440  0.85378917  0.60081777     0.81800
N2043       N  0.74319982  0.85100374  0.64020120    -0.80700
C2044       C  0.74041078  0.87201640  0.83070280     0.79300
N2045       N  0.74230728  0.89526611  0.85102268    -0.79000
C2046       C  0.74707727  0.89746623  0.89045936     0.81700
N2047       N  0.74979953  0.87621775  0.90976722    -0.79000
C2048       C  0.74701695  0.85253637  0.88974262     0.81800
N2049       N  0.74233973  0.85059724  0.85050307    -0.80700
C2050       C  0.59575364  0.87158363  0.83071974     0.79300
N2051       N  0.57240420  0.85032610  0.85102175    -0.79000
C2052       C  0.57021598  0.85283942  0.89044636     0.81700
N2053       N  0.59156886  0.87671960  0.90980897    -0.79000
C2054       C  0.61534164  0.89756086  0.88982343     0.81800
N2055       N  0.61729846  0.89484462  0.85056082    -0.80700
C2056       C  0.59602169  0.87159152  0.66066965     0.79300
N2057       N  0.57309802  0.84946631  0.64100618    -0.79000
C2058       C  0.57016749  0.85116776  0.60171322     0.81700
N2059       N  0.59044413  0.87520638  0.58155915    -0.79000
C2060       C  0.61398280  0.89711079  0.60075967     0.81800
N2061       N  0.61668265  0.89521401  0.64017704    -0.80700
C2062       C  0.59658677  0.72742232  0.66066732     0.79300
N2063       N  0.57293990  0.72449546  0.64029067    -0.79000
C2064       C  0.57095344  0.71990841  0.60086754     0.81700
N2065       N  0.59280441  0.71827348  0.58154729    -0.79000
C2066       C  0.61688039  0.72203260  0.60157799     0.81800
N2067       N  0.61865496  0.72663230  0.64088047    -0.80700
C2068       C  0.59661694  0.72719144  0.83074050     0.79300
N2069       N  0.61786182  0.72517287  0.85111965    -0.79000
C2070       C  0.61542365  0.72072654  0.89057979     0.81700
N2071       N  0.59161464  0.71834523  0.90991660    -0.79000
C2072       C  0.57077302  0.72119438  0.88985250     0.81800
N2073       N  0.57341994  0.72564079  0.85053770    -0.80700
C2074       C  0.85869600  0.60854570  0.83066546     0.79300
N2075       N  0.83753009  0.58510754  0.85094423    -0.79000
C2076       C  0.84015479  0.58283159  0.89033285     0.81700
N2077       N  0.86405326  0.60418223  0.90966865    -0.79000
C2078       C  0.88479991  0.62803343  0.88970805     0.81800
N2079       N  0.88197452  0.63007451  0.85049233    -0.80700
C2080       C  0.85871206  0.60894909  0.66066347     0.79300
N2081       N  0.83665516  0.58595623  0.64101862    -0.79000
C2082       C  0.83846573  0.58290458  0.60177545     0.81700
N2083       N  0.86254454  0.60313110  0.58164849    -0.79000
C2084       C  0.88438681  0.62673512  0.60081782     0.81800
N2085       N  0.88238731  0.62955563  0.64019197    -0.80700
C2086       C  0.85898557  0.75235503  0.66072762     0.79300
N2087       N  0.83843295  0.75555078  0.64032987    -0.79000
C2088       C  0.84123382  0.76043383  0.60096478     0.81700
N2089       N  0.86479505  0.76215181  0.58174443    -0.79000
C2090       C  0.88496471  0.75816916  0.60179372     0.81800
N2091       N  0.88191017  0.75322892  0.64102268    -0.80700
C2092       C  0.85937702  0.75258409  0.83073099     0.79300
N2093       N  0.88271699  0.75473270  0.85107537    -0.79000
C2094       C  0.88490585  0.75956102  0.89047801     0.81700
N2095       N  0.86358994  0.76216889  0.90975885    -0.79000
C2096       C  0.83983545  0.75918850  0.88972584     0.81800
N2097       N  0.83786922  0.75438797  0.85049937    -0.80700
C2098       C  0.71533893  0.60955065  0.83074690     0.79300
N2099       N  0.71369675  0.58630164  0.85052281    -0.79000
C2100       C  0.70891973  0.58348113  0.88977971     0.81700
N2101       N  0.70583330  0.60419853  0.90980236    -0.79000
C2102       C  0.70828737  0.62804884  0.89049840     0.81800
N2103       N  0.71305425  0.63065270  0.85110374    -0.80700
C2104       C  0.71553139  0.60953625  0.66068697     0.79300
N2105       N  0.71258599  0.58587416  0.64032679    -0.79000
C2106       C  0.70770333  0.58373925  0.60095835     0.81700
N2107       N  0.70580049  0.60545437  0.58167738    -0.79000
C2108       C  0.70956253  0.62953648  0.60168343     0.81800
N2109       N  0.71444372  0.63145472  0.64092543    -0.80700
C2110       C  0.74974340  0.83049925  0.57919554     0.41500
N2111       N  0.74345608  0.78793138  0.56495098     0.00400
C2112       C  0.78473692  0.74369203  0.89676122    -0.07500
H2113       H  0.71702256  0.78767019  0.87173618     0.05900
C2114       C  0.63729549  0.70462992  0.94894390    -0.07800
Co2115     Co  0.77554112  0.78800831  0.99233671     0.74200
N2116       N  0.73877909  0.78309629  0.92266936    -0.27000
Co2117     Co  0.72622037  0.73877224  0.92375403     0.74100
C2118       C  0.63913203  0.71973372  0.91214705     0.41600
N2119       N  0.66771327  0.71275838  0.54238056     0.00000
N2120       N  0.68184968  0.72639904  0.92619683     0.00100
N2121       N  0.81680505  0.77485003  0.94222116    -0.47800
H2122       H  0.77835747  0.85160112  0.52425783     0.05900
N2123       N  0.75716566  0.80211080  0.94868444     0.00400
N2124       N  0.71374321  0.69437597  0.92614465     0.00200
C2125       C  0.70709850  0.65167071  0.91203705     0.41800
N2126       N  0.68668974  0.73112333  0.56843146    -0.26500
C2127       C  0.81998021  0.77747424  0.54252267    -0.07400
N2128       N  0.73703520  0.80230940  0.59144761    -0.47600
N2129       N  0.71993957  0.67983815  0.89961169    -0.47800
C2130       C  0.81793884  0.76226513  0.57937488     0.41500
N2131       N  0.78954370  0.76950785  0.94869998     0.00400
N2132       N  0.71849716  0.69924475  0.56846535    -0.26500
N2133       N  0.76013039  0.80504878  0.53620197    -0.27000
N2134       N  0.70014748  0.68025719  0.54240994     0.00000
H2135       H  0.73996859  0.69455780  0.61964941     0.05900
H2136       H  0.67856713  0.63080381  0.96706012     0.06000
N2137       N  0.77049749  0.75117959  0.92266430    -0.27000
N2138       N  0.66483305  0.70974849  0.95502850    -0.26600
N2139       N  0.77537090  0.75594796  0.56502693     0.00400
C2140       C  0.74691317  0.82784363  0.90994615     0.41800
C2141       C  0.67229672  0.73839439  0.59440834    -0.07900
N2142       N  0.69711637  0.67735387  0.95498747    -0.26600
H2143       H  0.61828924  0.69116414  0.96713279     0.06000
N2144       N  0.76262262  0.82941345  0.94220967    -0.47800
H2145       H  0.68196081  0.75262089  0.61956964     0.05900
C2146       C  0.71009519  0.65441098  0.58137024     0.41600
C2147       C  0.76501904  0.83252934  0.54240540    -0.07400
Co2148     Co  0.73101093  0.74357042  0.56733314     0.73800
N2149       N  0.64037632  0.70714517  0.54891745    -0.47600
C2150       C  0.81517138  0.75912662  0.90993937     0.41900
N2151       N  0.78973965  0.74956940  0.59159843    -0.47600
Co2152     Co  0.68179841  0.69436859  0.99881372     0.73900
C2153       C  0.69200164  0.64981521  0.94886304    -0.07900
C2154       C  0.73137118  0.79740368  0.89677436    -0.07400
N2155       N  0.79250490  0.77257308  0.53625792    -0.27000
N2156       N  0.66729401  0.73258997  0.89968132    -0.47700
H2157       H  0.77496358  0.72936457  0.87171328     0.05900
C2158       C  0.72574411  0.68487261  0.59449159    -0.07900
Cl2159     Cl  0.72865481  0.74118768  0.99554217    -0.50900
C2160       C  0.64183611  0.72274170  0.58124301     0.41700
H2161       H  0.83906256  0.79080054  0.52438570     0.05900
N2162       N  0.69452524  0.65292013  0.54899512    -0.47600
C2163       C  0.54545911  0.82909964  0.91200299     0.41500
N2164       N  0.00962830  0.78625931  0.92629912     0.00400
C2165       C  0.92414803  0.74200052  0.59463785    -0.07500
H2166       H  0.53576285  0.78606756  0.61975050     0.05900
C2167       C  0.53265540  0.70298195  0.54254360    -0.07800
Co2168     Co  0.97760854  0.78610056  0.99898991     0.74200
N2169       N  0.00951959  0.78126826  0.56859469    -0.27000
Co2170     Co  0.97769805  0.73692670  0.56744966     0.74100
C2171       C  0.54588639  0.71820996  0.57934321     0.41600
N2172       N  0.01028140  0.71109147  0.94888101     0.00000
N2173       N  0.00967600  0.72457576  0.56509348     0.00100
N2174       N  0.92342469  0.77323257  0.54919503    -0.47800
H2175       H  0.53769997  0.84985907  0.96704806     0.05900
N2176       N  0.01007675  0.80022525  0.54256908     0.00400
N2177       N  0.94575304  0.69258649  0.56500680     0.00200
C2178       C  0.90942955  0.65004145  0.57918720     0.41800
N2179       N  0.00962083  0.72945734  0.92287953    -0.26500
C2180       C  0.92282481  0.77576768  0.94898097    -0.07400
N2181       N  0.53025908  0.80089861  0.89964957    -0.47600
N2182       N  0.92492639  0.67821279  0.59147781    -0.47800
C2183       C  0.90966509  0.76071489  0.91209168     0.41500
N2184       N  0.94515190  0.76765040  0.54258774     0.00400
N2185       N  0.94593736  0.69749931  0.92281753    -0.26500
N2186       N  0.00995630  0.80324097  0.95513959    -0.27000
N2187       N  0.94529310  0.67846851  0.94879220     0.00000
H2188       H  0.91960803  0.69295111  0.87188884     0.05900
H2189       H  0.91691563  0.62893732  0.52425229     0.06000
N2190       N  0.94580066  0.74930623  0.56861739    -0.27000
N2191       N  0.01012000  0.70792554  0.53633157    -0.26600
N2192       N  0.94571476  0.75411725  0.92631641     0.00400
C2193       C  0.54588451  0.82617476  0.58148348     0.41800
C2194       C  0.53135799  0.73693108  0.89698027    -0.07900
N2195       N  0.94528942  0.67547964  0.53624699    -0.26600
H2196       H  0.53834954  0.68962663  0.52439541     0.06000
N2197       N  0.53173709  0.82759251  0.54915499    -0.47800
H2198       H  0.53593326  0.75125078  0.87192502     0.05900
C2199       C  0.90931944  0.65274907  0.91000211     0.41600
C2200       C  0.53224028  0.83085424  0.94890827    -0.07400
Co2201     Co  0.97773407  0.74182588  0.92392595     0.73800
N2202       N  0.53216081  0.70570882  0.94238999    -0.47600
C2203       C  0.90931798  0.75762537  0.58153341     0.41900
N2204       N  0.92502816  0.74792623  0.89970326    -0.47600
Co2205     Co  0.97774581  0.69253816  0.99243871     0.73900
C2206       C  0.92266789  0.64800318  0.54241206    -0.07900
C2207       C  0.53116681  0.79570641  0.59460118    -0.07400
N2208       N  0.94525916  0.77069576  0.95516749    -0.27000
N2209       N  0.53044894  0.73094321  0.59163028    -0.47700
H2210       H  0.91960872  0.72777016  0.61978549     0.05900
C2211       C  0.92421183  0.68320465  0.89690959    -0.07900
Cl2212     Cl  0.97771267  0.73934713  0.99568552    -0.50900
C2213       C  0.54629344  0.72144309  0.91013409     0.41700
H2214       H  0.91722138  0.78918528  0.96714444     0.05900
N2215       N  0.92345262  0.65116189  0.94225491    -0.47600
C2216       C  0.74817190  0.92221611  0.91209637     0.41500
N2217       N  0.74151099  0.95822995  0.92639816     0.00400
C2218       C  0.78309081  0.54372770  0.59470747    -0.07500
H2219       H  0.71510920  0.93211081  0.61980759     0.05900
C2220       C  0.63540719  0.93542008  0.54240930    -0.07800
Co2221     Co  0.77355526  0.99019701  0.99905486     0.74200
N2222       N  0.73670690  0.95834979  0.56869062    -0.27000
Co2223     Co  0.72435840  0.99027194  0.56754345     0.74100
C2224       C  0.63737388  0.92209674  0.57913874     0.41600
N2225       N  0.66588977  0.95799181  0.94891002     0.00000
N2226       N  0.67998408  0.95837130  0.56505627     0.00100
N2227       N  0.81501231  0.54441007  0.54923008    -0.47800
H2228       H  0.77673275  0.92985283  0.96708255     0.05900
N2229       N  0.75506956  0.95771613  0.54267456     0.00400
N2230       N  0.71209544  0.52231042  0.56520894     0.00200
C2231       C  0.70591821  0.55863755  0.57943293     0.41800
N2232       N  0.68489793  0.95854088  0.92297413    -0.26500
C2233       C  0.81829448  0.54484615  0.94885498    -0.07400
N2234       N  0.73533029  0.93754801  0.89976688    -0.47600
N2235       N  0.71854085  0.54310433  0.59173917    -0.47800
C2236       C  0.81649249  0.55800299  0.91190390     0.41500
N2237       N  0.78766976  0.52268223  0.54266048     0.00400
N2238       N  0.71695436  0.52221948  0.92293658    -0.26500
N2239       N  0.75814439  0.95781871  0.95520817    -0.27000
N2240       N  0.69864352  0.52297382  0.94894445     0.00000
H2241       H  0.73873942  0.54841693  0.87190192     0.05900
H2242       H  0.67740474  0.55123213  0.52444623     0.06000
N2243       N  0.76869768  0.52207030  0.56870686    -0.27000
N2244       N  0.66291473  0.95800099  0.53630749    -0.26600
N2245       N  0.77368629  0.52215385  0.92631092     0.00400
C2246       C  0.74496703  0.92181636  0.58156940     0.41800
C2247       C  0.67055450  0.93681602  0.89708244    -0.07900
N2248       N  0.69550718  0.52283880  0.53642392    -0.26600
H2249       H  0.61636866  0.92974410  0.52423064     0.06000
N2250       N  0.76060828  0.93595553  0.54925846    -0.47800
H2251       H  0.68026964  0.93216202  0.87207205     0.05900
C2252       C  0.70903161  0.55893255  0.91007363     0.41600
C2253       C  0.76326165  0.93541550  0.94896710    -0.07400
Co2254     Co  0.72924730  0.99028098  0.92402107     0.73800
N2255       N  0.63855077  0.93621838  0.94236119    -0.47600
C2256       C  0.81354685  0.55852597  0.58157230     0.41900
N2257       N  0.78828195  0.54275757  0.89961348    -0.47600
Co2258     Co  0.68004410  0.99046543  0.99252903     0.73900
C2259       C  0.69068219  0.54545205  0.54261964    -0.07900
C2260       C  0.72936173  0.93666525  0.59468169    -0.07400
N2261       N  0.79069506  0.52254131  0.95515445    -0.27000
N2262       N  0.66554414  0.93751705  0.59147491    -0.47700
H2263       H  0.77342092  0.54830733  0.61983696     0.05900
C2264       C  0.72445016  0.54391846  0.89697192    -0.07900
Cl2265     Cl  0.72680523  0.99031722  0.99577779    -0.50900
C2266       C  0.64009348  0.92203119  0.91013796     0.41700
H2267       H  0.83732028  0.55036227  0.96697931     0.05900
N2268       N  0.69331656  0.54488398  0.94238582    -0.47600
C2269       C  0.71959232  0.63470146  0.76621399    -0.14300
C2270       C  0.71826772  0.61100558  0.78730289     0.07900
C2271       C  0.71821676  0.58783175  0.76627250    -0.14300
C2272       C  0.71826749  0.58776831  0.72524567    -0.14300
C2273       C  0.71843120  0.61090636  0.70414349     0.07900
C2274       C  0.71971344  0.63467167  0.72517724    -0.14300
H2275       H  0.71985376  0.65300537  0.78136039     0.11900
H2276       H  0.71736125  0.56925492  0.78146379     0.11900
H2277       H  0.71744248  0.56919013  0.71011374     0.11900
H2278       H  0.72004833  0.65299575  0.70997246     0.11900
C2279       C  0.87852242  0.74579801  0.72513167    -0.14300
C2280       C  0.85737748  0.74944872  0.70417105     0.07900
C2281       C  0.83576262  0.75203638  0.72533161    -0.14300
C2282       C  0.83595245  0.75212368  0.76632113    -0.14300
C2283       C  0.85779582  0.74968492  0.78730391     0.07900
C2284       C  0.87875653  0.74595929  0.76619546    -0.14300
H2285       H  0.89539693  0.74351089  0.70983981     0.11900
H2286       H  0.81910207  0.75480477  0.71027442     0.11900
H2287       H  0.81936974  0.75494473  0.78152151     0.11900
H2288       H  0.89573467  0.74377141  0.78135116     0.11900
C2289       C  0.88145423  0.63258550  0.72523323    -0.14300
C2290       C  0.85746477  0.61058929  0.70410771     0.07900
C2291       C  0.83289876  0.58910214  0.72510382    -0.14300
C2292       C  0.83285636  0.58888696  0.76614771    -0.14300
C2293       C  0.85734450  0.61020154  0.78724406     0.07900
C2294       C  0.88137934  0.63241452  0.76624461    -0.14300
H2295       H  0.90069191  0.64953719  0.71013576     0.11900
H2296       H  0.81389995  0.57193060  0.70985619     0.11900
H2297       H  0.81387745  0.57162052  0.78129870     0.11900
H2298       H  0.90061304  0.64929740  0.78144368     0.11900
C2299       C  0.57424668  0.72900367  0.72525249    -0.14300
C2300       C  0.59780347  0.73005288  0.70414142     0.07900
C2301       C  0.62189389  0.73204592  0.72515731    -0.14300
C2302       C  0.62192357  0.73190153  0.76619667    -0.14300
C2303       C  0.59789986  0.72984097  0.78728223     0.07900
C2304       C  0.57430610  0.72892485  0.76626358    -0.13400
H2305       H  0.55537976  0.72755484  0.71013824     0.11900
H2306       H  0.64052712  0.73305008  0.70993273     0.11900
H2307       H  0.64053827  0.73282148  0.78135052     0.11900
H2308       H  0.55543797  0.72742569  0.78145256     0.11900
C2309       C  0.61964422  0.89439525  0.72523685    -0.14300
C2310       C  0.59759905  0.87042412  0.70413109     0.07900
C2311       C  0.57606284  0.84591090  0.72515007    -0.14300
C2312       C  0.57589512  0.84586680  0.76619115    -0.14300
C2313       C  0.59730121  0.87030441  0.78727493     0.07900
C2314       C  0.61951542  0.89432219  0.76625339    -0.14300
H2315       H  0.63662954  0.91359921  0.71011934     0.11900
H2316       H  0.55884369  0.82693466  0.70992291     0.11900
H2317       H  0.55861111  0.82690749  0.78135330     0.11900
H2318       H  0.63645603  0.91352283  0.78144242     0.11900
C2319       C  0.74238456  0.84983775  0.72530008    -0.14300
C2320       C  0.73727165  0.86986771  0.70414342     0.07900
C2321       C  0.73131995  0.88949745  0.72510159    -0.14300
C2322       C  0.73156843  0.88979827  0.76618859    -0.14300
C2323       C  0.73768574  0.87041435  0.78726808     0.07900
C2324       C  0.74256319  0.85009139  0.76627494    -0.14300
H2325       H  0.74708717  0.83444701  0.71024072     0.11900
H2326       H  0.72704996  0.90509274  0.70976975     0.11900
H2327       H  0.72745461  0.90554007  0.78139892     0.11900
H2328       H  0.74737427  0.83481840  0.78146465     0.11900
loop_ 
_geom_bond_atom_site_label_1 
_geom_bond_atom_site_label_2 
_geom_bond_distance 
_geom_bond_site_symmetry_2 
_ccdc_geom_bond_type 
C1            N2   1.357       .  A
C1            N6   1.360       .  A
C1          C283   1.487       .  S
N2            C3   1.358       .  A
C3            N4   1.359       .  A
C3          C209   1.464       .  S
N4            C5   1.359       .  A
C5            N6   1.361       .  A
C5           C73   1.468       .  S
C7            N8   1.360       .  A
C7           N12   1.355       .  A
C7          C286   1.487       .  S
N8            C9   1.362       .  A
C9           N10   1.360       .  A
C9          C179   1.467       .  S
N10          C11   1.358       .  A
C11          N12   1.355       .  A
C11         C103   1.463       .  S
C13          N14   1.360       .  A
C13          N18   1.356       .  A
C13         C276   1.487       .  S
N14          C15   1.362       .  A
C15          N16   1.360       .  A
C15         C126   1.467       .  S
N16          C17   1.358       .  A
C17          N18   1.356       .  A
C17         C229   1.462       .  S
C19          N20   1.356       .  A
C19          N24   1.360       .  A
C19         C273   1.488       .  S
N20          C21   1.357       .  A
C21          N22   1.359       .  A
C21         C156   1.462       .  S
N22          C23   1.359       .  A
C23          N24   1.361       .  A
C23         C187   1.467       .  S
C25          N26   1.360       .  A
C25          N30   1.356       .  A
C25         C263   1.488       .  S
N26          C27   1.361       .  A
C27          N28   1.360       .  A
C27         C134   1.467       .  S
N28          C29   1.359       .  A
C29          N30   1.357       .  A
C29         C123   1.463       .  S
C31          N32   1.360       .  A
C31          N36   1.356       .  A
C31         C266   1.487       .  S
N32          C33   1.361       .  A
C33          N34   1.360       .  A
C33          C81   1.466       .  S
N34          C35   1.358       .  A
C35          N36   1.356       .  A
C35         C176   1.462       .  S
C37          N38   1.360       .  A
C37          N42   1.356       .  A
C37         C256   1.487       .  S
N38          C39   1.362       .  A
C39          N40   1.360       .  A
C39         C199   1.467       .  S
N40          C41   1.358       .  A
C41          N42   1.356       .  A
C41         C162   1.462       .  S
C43          N44   1.356       .  A
C43          N48   1.360       .  A
C43         C253   1.488       .  S
N44          C45   1.357       .  A
C45          N46   1.358       .  A
C45         C219   1.462       .  S
N46          C47   1.359       .  A
C47          N48   1.361       .  A
C47         C141   1.466       .  S
C49          N50   1.360       .  A
C49          N54   1.356       .  A
C49         C243   1.488       .  S
N50          C51   1.361       .  A
C51          N52   1.360       .  A
C51          C93   1.468       .  S
N52          C53   1.359       .  A
C53          N54   1.357       .  A
C53         C166   1.463       .  S
C55          N56   1.360       .  A
C55          N60   1.356       .  A
C55         C246   1.487       .  S
N56          C57   1.362       .  A
C57          N58   1.360       .  A
C57         C146   1.466       .  S
N58          C59   1.358       .  A
C59          N60   1.356       .  A
C59         C113   1.462       .  S
C61          N62   1.356       .  A
C61          N66   1.360       .  A
C61         C233   1.488       .  S
N62          C63   1.357       .  A
C63          N64   1.358       .  A
C63         C215   1.462       .  S
N64          C65   1.360       .  A
C65          N66   1.361       .  A
C65          C88   1.466       .  S
C67          N68   1.360       .  A
C67          N72   1.356       .  A
C67         C236   1.488       .  S
N68          C69   1.361       .  A
C69          N70   1.360       .  A
C69         C194   1.467       .  S
N70          C71   1.358       .  A
C71          N72   1.357       .  A
C71         C109   1.463       .  S
C73          N91   1.346       .  A
C73         C110   1.463       .  S
N74          N91   1.323       .  A
N74          N96   1.320       .  A
N74        Co111   2.076       .  S
C75         N100   1.335       .  A
C75         C113   1.451       .  S
C75         H120   1.082       .  S
H76         C117   1.082       .  S
C77         N101   1.344       .  A
C77          C81   1.461       .  S
C77         H106   1.082       .  S
Co78         N86   2.097       .  S
Co78         N94   2.098       .  S
Co78        N387   2.099       .  S
Co78        N409   2.099       .  S
Co78       Cl122   2.454       .  S
N79         C117   1.335       .  A
N79          N86   1.321       .  A
N79         Co80   2.071       .  S
Co80         N83   2.078       .  S
Co80        N100   2.071       .  S
Co80         N87   2.077       .  S
Co80       Cl122   2.452       .  S
C81         N119   1.347       .  A
N82          N89   1.321       .  A
N82         N112   1.328       .  A
N82        Co406   2.095   1_554  S
N83         N101   1.320       .  A
N83         N119   1.323       .  A
N84         C113   1.352       .  A
N84          N94   1.328       .  A
H85         C110   1.081       .  S
N86         N107   1.328       .  A
N87         N105   1.320       .  A
N87          N92   1.323       .  A
C88          N92   1.347       .  A
C88         C116   1.461       .  S
N89         C104   1.336       .  A
N89        Co111   2.073       .  S
C90         N118   1.346       .  A
C90          C93   1.463       .  S
C90         H124   1.081       .  S
C93         N114   1.346       .  A
N94         N100   1.321       .  A
N95         C121   1.336       .  A
N95          N97   1.321       .  A
N95        Co111   2.072       .  S
N96         C110   1.346       .  A
N96        Co369   2.099   1_554  S
N97         N125   1.328       .  A
N97        Co406   2.095   1_554  S
H98         C121   1.082       .  S
H99         C116   1.082       .  S
N101       Co115   2.094       .  S
N102        N114   1.323       .  A
N102        N118   1.320       .  A
N102       Co111   2.077       .  S
C103        N107   1.351       .  A
C103        C117   1.451       .  S
C104        C123   1.452       .  S
C104        H108   1.082       .  S
N105        C116   1.344       .  A
N105       Co115   2.094       .  S
C109        N125   1.351       .  A
C109        C121   1.451       .  S
Co111      Cl413   2.452   1_554  S
N112        C123   1.351       .  A
Co115       N373   2.095       .  S
Co115       N388   2.095       .  S
Co115      Cl122   2.453       .  S
N118       Co369   2.099   1_554  S
Cl122      Co402   2.452       .  S
C126        N144   1.347       .  A
C126        C163   1.461       .  S
N127        N149   1.320       .  A
N127       N1308   1.323       .  A
N127       Co164   2.078       .  S
C128        N153   1.336       .  A
C128        C166   1.452       .  S
C128        H173   1.082       .  S
H129        C170   1.082       .  S
C130       N1318   1.345       .  A
C130        C134   1.462       .  S
C130        H159   1.081       .  S
Co131       N149   2.095       .  S
Co131       N171   2.094       .  S
Co131       N430   2.095       .  S
Co131       N438   2.095       .  S
Co131      Cl175   2.453       .  S
N132       C1334   1.336       .  A
N132        N139   1.321       .  A
N132       Co133   2.072       .  S
Co133       N136   2.076       .  S
Co133       N153   2.072       .  S
Co133       N140   2.075       .  S
Co133      Cl466   2.451   1_554  S
C134        N172   1.346       .  A
N135        N142   1.321       .  A
N135       N1329   1.328       .  A
N135       Co168   2.097       .  S
N136        N154   1.320       .  A
N136       N1336   1.323       .  A
N137        C166   1.351       .  A
N137        N147   1.328       .  A
H138        C163   1.082       .  S
N139       N1324   1.328       .  A
N139       Co422   2.095   1_554  S
N140        N158   1.320       .  A
N140        N145   1.322       .  A
C141        N145   1.346       .  A
C141        C169   1.463       .  S
N142       C1321   1.335       .  A
N142       Co164   2.071       .  S
C143        N171   1.344       .  A
C143        C146   1.461       .  S
C143        H177   1.082       .  S
N144       N1291   1.323       .  A
C146        N167   1.346       .  A
N147        N153   1.321       .  A
N147       Co422   2.095   1_554  S
N148        C174   1.335       .  A
N148        N150   1.321       .  A
N148       Co164   2.071       .  S
N149       C1327   1.344       .  A
N150        N178   1.328       .  A
N150       Co168   2.096       .  S
H151        C174   1.082       .  S
H152        C169   1.082       .  S
N154       C1294   1.345       .  A
N154       Co459   2.097   1_554  S
N155        N167   1.323       .  A
N155        N171   1.320       .  A
N155       Co164   2.076       .  S
C156        N160   1.351       .  A
C156        C170   1.452       .  S
C157       N1306   1.335       .  A
C157        C176   1.451       .  S
C157        H161   1.082       .  S
N158        C169   1.345       .  A
N158       Co459   2.097   1_554  S
N160       N1303   1.328       .  A
C162        N178   1.351       .  A
C162        C174   1.451       .  S
C163       N1313   1.344       .  A
Co164      Cl175   2.451       .  S
N165        C176   1.351       .  A
N165       N1299   1.328       .  A
Co168       N445   2.097       .  S
Co168       N449   2.097       .  S
Co168      Cl175   2.454       .  S
C170       N1296   1.336       .  A
N172       N1300   1.323       .  A
Cl175      Co424   2.451       .  S
C179        N197   1.347       .  A
C179        C216   1.462       .  S
N180        N197   1.323       .  A
N180        N202   1.320       .  A
N180       Co217   2.077       .  S
C181        N206   1.336       .  A
C181        C219   1.451       .  S
C181        H226   1.082       .  S
H182        C223   1.082       .  S
C183        N207   1.345       .  A
C183        C187   1.462       .  S
C183        H212   1.082       .  S
Co184       N202   2.096       .  S
Co184       N483   2.096       .  S
Co184       N806   2.096       .  S
Co184      N1073   2.096       .  S
Co184      Cl228   2.453       .  S
N185        C223   1.336       .  A
N185        N192   1.321       .  A
N185       Co186   2.072       .  S
Co186       N189   2.076       .  S
Co186       N788   2.072       .  S
Co186       N775   2.076       .  S
Co186      Cl519   2.451   1_554  S
C187        N225   1.346       .  A
N188        N195   1.321       .  A
N188        N218   1.328       .  A
N188       Co221   2.096       .  S
N189        N207   1.320       .  A
N189        N225   1.323       .  A
N190        C219   1.351       .  A
N190        N200   1.328       .  A
H191        C216   1.082       .  S
N192        N213   1.328       .  A
N192       Co475   2.096   1_554  S
N193        N211   1.320       .  A
N193        N198   1.323       .  A
N193       Co768   2.076   1_545  S
C194        N198   1.346       .  A
C194        C222   1.462       .  S
N195        C210   1.335       .  A
N195       Co217   2.071       .  S
C196        N224   1.345       .  A
C196        C199   1.462       .  S
C196        H230   1.082       .  S
C199        N220   1.347       .  A
N200        N206   1.321       .  A
N200      Co1057   2.096   1_544  S
N201        C227   1.335       .  A
N201        N203   1.321       .  A
N201       Co799   2.071   1_545  S
N202        C216   1.344       .  A
N203        N231   1.328       .  A
N203       Co803   2.097   1_545  S
H204        C227   1.082       .  S
H205        C222   1.081       .  S
N206       Co768   2.072   1_545  S
N207       Co512   2.097   1_554  S
N208        N220   1.323       .  A
N208        N224   1.320       .  A
N208       Co799   2.078   1_545  S
C209        N213   1.351       .  A
C209        C223   1.452       .  S
C210        C229   1.451       .  S
C210        H214   1.082       .  S
N211        C222   1.345       .  A
N211      Co1094   2.097   1_544  S
C215        N231   1.352       .  A
C215        C227   1.451       .  S
Co217       N783   2.071       .  S
Co217       N790   2.078       .  S
Co217      Cl228   2.451       .  S
N218        C229   1.351       .  A
Co221       N785   2.097       .  S
Co221       N498   2.097       .  S
Co221      N1084   2.097       .  S
Co221      Cl228   2.455       .  S
N224       Co766   2.096   1_545  S
Cl228      Co477   2.451       .  S
C232        H238   1.083       .  S
C232        C233   1.405       .  A
C232        C237   1.400       .  A
C233        C234   1.408       .  A
C234        H239   1.083       .  S
C234        C235   1.399       .  A
C235        H240   1.083       .  S
C235        C236   1.405       .  A
C236        C237   1.408       .  A
C237        H241   1.083       .  S
C242        H248   1.083       .  S
C242        C243   1.409       .  A
C242        C247   1.401       .  A
C243        C244   1.405       .  A
C244        H249   1.083       .  S
C244        C245   1.398       .  A
C245        H250   1.083       .  S
C245        C246   1.408       .  A
C246        C247   1.405       .  A
C247        H251   1.083       .  S
C252        H258   1.083       .  S
C252        C253   1.405       .  A
C252        C257   1.399       .  A
C253        C254   1.408       .  A
C254        H259   1.083       .  S
C254        C255   1.400       .  A
C255        H260   1.083       .  S
C255        C256   1.405       .  A
C256        C257   1.408       .  A
C257        H261   1.083       .  S
C262        H268   1.083       .  S
C262        C263   1.405       .  A
C262        C267   1.399       .  A
C263        C264   1.408       .  A
C264        H269   1.083       .  S
C264        C265   1.400       .  A
C265        H270   1.083       .  S
C265        C266   1.405       .  A
C266        C267   1.408       .  A
C267        H271   1.083       .  S
C272        H278   1.083       .  S
C272        C273   1.405       .  A
C272        C277   1.399       .  A
C273        C274   1.408       .  A
C274        H279   1.083       .  S
C274        C275   1.400       .  A
C275        H280   1.083       .  S
C275        C276   1.405       .  A
C276        C277   1.408       .  A
C277        H281   1.083       .  S
C282        H288   1.083       .  S
C282        C283   1.405       .  A
C282        C287   1.398       .  A
C283        C284   1.409       .  A
C284        H289   1.083       .  S
C284        C285   1.402       .  A
C285        H290   1.083       .  S
C285        C286   1.405       .  A
C286        C287   1.408       .  A
C287        H291   1.083       .  S
C292        N293   1.357       .  A
C292        N297   1.360       .  A
C292        C574   1.487       .  S
N293        C294   1.358       .  A
C294        N295   1.359       .  A
C294        C500   1.464       .  S
N295        C296   1.359       .  A
C296        N297   1.361       .  A
C296        C364   1.468       .  S
C298        N299   1.360       .  A
C298        N303   1.355       .  A
C298        C577   1.487       .  S
N299        C300   1.362       .  A
C300        N301   1.360       .  A
C300        C470   1.467       .  S
N301        C302   1.358       .  A
C302        N303   1.355       .  A
C302        C394   1.463       .  S
C304        N305   1.360       .  A
C304        N309   1.356       .  A
C304        C567   1.487       .  S
N305        C306   1.362       .  A
C306        N307   1.360       .  A
C306        C417   1.467       .  S
N307        C308   1.358       .  A
C308        N309   1.356       .  A
C308        C520   1.462       .  S
C310        N311   1.356       .  A
C310        N315   1.360       .  A
C310        C564   1.488       .  S
N311        C312   1.357       .  A
C312        N313   1.359       .  A
C312        C447   1.462       .  S
N313        C314   1.359       .  A
C314        N315   1.361       .  A
C314        C478   1.467       .  S
C316        N317   1.360       .  A
C316        N321   1.356       .  A
C316        C554   1.488       .  S
N317        C318   1.361       .  A
C318        N319   1.360       .  A
C318        C425   1.467       .  S
N319        C320   1.359       .  A
C320        N321   1.357       .  A
C320        C414   1.463       .  S
C322        N323   1.360       .  A
C322        N327   1.356       .  A
C322        C557   1.487       .  S
N323        C324   1.361       .  A
C324        N325   1.360       .  A
C324        C372   1.466       .  S
N325        C326   1.358       .  A
C326        N327   1.356       .  A
C326        C467   1.462       .  S
C328        N329   1.360       .  A
C328        N333   1.356       .  A
C328        C547   1.487       .  S
N329        C330   1.362       .  A
C330        N331   1.360       .  A
C330        C490   1.467       .  S
N331        C332   1.358       .  A
C332        N333   1.356       .  A
C332        C453   1.462       .  S
C334        N335   1.356       .  A
C334        N339   1.360       .  A
C334        C544   1.488       .  S
N335        C336   1.357       .  A
C336        N337   1.358       .  A
C336        C510   1.462       .  S
N337        C338   1.359       .  A
C338        N339   1.361       .  A
C338        C432   1.466       .  S
C340        N341   1.360       .  A
C340        N345   1.356       .  A
C340        C534   1.488       .  S
N341        C342   1.361       .  A
C342        N343   1.360       .  A
C342        C384   1.468       .  S
N343        C344   1.359       .  A
C344        N345   1.357       .  A
C344        C457   1.463       .  S
C346        N347   1.360       .  A
C346        N351   1.356       .  A
C346        C537   1.487       .  S
N347        C348   1.362       .  A
C348        N349   1.360       .  A
C348        C437   1.466       .  S
N349        C350   1.358       .  A
C350        N351   1.356       .  A
C350        C404   1.462       .  S
C352        N353   1.356       .  A
C352        N357   1.360       .  A
C352        C524   1.488       .  S
N353        C354   1.357       .  A
C354        N355   1.358       .  A
C354        C506   1.462       .  S
N355        C356   1.360       .  A
C356        N357   1.361       .  A
C356        C379   1.466       .  S
C358        N359   1.360       .  A
C358        N363   1.356       .  A
C358        C527   1.488       .  S
N359        C360   1.361       .  A
C360        N361   1.360       .  A
C360        C485   1.467       .  S
N361        C362   1.358       .  A
C362        N363   1.357       .  A
C362        C400   1.463       .  S
C364        N382   1.346       .  A
C364        C401   1.463       .  S
N365        N382   1.323       .  A
N365        N387   1.320       .  A
N365       Co402   2.076       .  S
C366        N391   1.335       .  A
C366        C404   1.451       .  S
C366        H411   1.082       .  S
H367        C408   1.082       .  S
C368        N392   1.344       .  A
C368        C372   1.461       .  S
C368        H397   1.082       .  S
Co369       N377   2.097       .  S
Co369       N385   2.098       .  S
Co369      Cl413   2.454       .  S
N370        C408   1.335       .  A
N370        N377   1.321       .  A
N370       Co371   2.071       .  S
Co371       N374   2.078       .  S
Co371       N391   2.071       .  S
Co371       N378   2.077       .  S
Co371      Cl413   2.452       .  S
C372        N410   1.347       .  A
N373        N380   1.321       .  A
N373        N403   1.328       .  A
N374        N392   1.320       .  A
N374        N410   1.323       .  A
N375        C404   1.352       .  A
N375        N385   1.328       .  A
H376        C401   1.081       .  S
N377        N398   1.328       .  A
N378        N396   1.320       .  A
N378        N383   1.323       .  A
C379        N383   1.347       .  A
C379        C407   1.461       .  S
N380        C395   1.336       .  A
N380       Co402   2.073       .  S
C381        N409   1.346       .  A
C381        C384   1.463       .  S
C381        H415   1.081       .  S
C384        N405   1.346       .  A
N385        N391   1.321       .  A
N386        C412   1.336       .  A
N386        N388   1.321       .  A
N386       Co402   2.072       .  S
N387        C401   1.346       .  A
N388        N416   1.328       .  A
H389        C412   1.082       .  S
H390        C407   1.082       .  S
N392       Co406   2.094       .  S
N393        N405   1.323       .  A
N393        N409   1.320       .  A
N393       Co402   2.077       .  S
C394        N398   1.351       .  A
C394        C408   1.451       .  S
C395        C414   1.452       .  S
C395        H399   1.082       .  S
N396        C407   1.344       .  A
N396       Co406   2.094       .  S
C400        N416   1.351       .  A
C400        C412   1.451       .  S
N403        C414   1.351       .  A
Co406      Cl413   2.453       .  S
C417        N435   1.347       .  A
C417        C454   1.461       .  S
N418       N1599   1.323       .  A
N418        N440   1.320       .  A
N418       Co455   2.078       .  S
C419        N444   1.336       .  A
C419        C457   1.452       .  S
C419        H464   1.082       .  S
H420        C461   1.082       .  S
C421       N1609   1.345       .  A
C421        C425   1.462       .  S
C421        H450   1.081       .  S
Co422       N440   2.095       .  S
Co422       N462   2.094       .  S
Co422      Cl466   2.453       .  S
N423       C1625   1.336       .  A
N423        N430   1.321       .  A
N423       Co424   2.072       .  S
Co424       N427   2.076       .  S
Co424       N444   2.072       .  S
Co424       N431   2.075       .  S
C425        N463   1.346       .  A
N426        N433   1.321       .  A
N426       N1620   1.328       .  A
N426       Co459   2.097       .  S
N427        N445   1.320       .  A
N427       N1627   1.323       .  A
N428        C457   1.351       .  A
N428        N438   1.328       .  A
H429        C454   1.082       .  S
N430       N1615   1.328       .  A
N431        N449   1.320       .  A
N431        N436   1.322       .  A
C432        N436   1.346       .  A
C432        C460   1.463       .  S
N433       C1612   1.335       .  A
N433       Co455   2.071       .  S
C434        N462   1.344       .  A
C434        C437   1.461       .  S
C434        H468   1.082       .  S
N435       N1582   1.323       .  A
C437        N458   1.346       .  A
N438        N444   1.321       .  A
N439        C465   1.335       .  A
N439        N441   1.321       .  A
N439       Co455   2.071       .  S
N440       C1618   1.344       .  A
N441        N469   1.328       .  A
N441       Co459   2.096       .  S
H442        C465   1.082       .  S
H443        C460   1.082       .  S
N445       C1585   1.345       .  A
N446        N458   1.323       .  A
N446        N462   1.320       .  A
N446       Co455   2.076       .  S
C447        N451   1.351       .  A
C447        C461   1.452       .  S
C448       N1597   1.335       .  A
C448        C467   1.451       .  S
C448        H452   1.082       .  S
N449        C460   1.345       .  A
N451       N1594   1.328       .  A
C453        N469   1.351       .  A
C453        C465   1.451       .  S
C454       N1604   1.344       .  A
Co455      Cl466   2.451       .  S
N456        C467   1.351       .  A
N456       N1590   1.328       .  A
Co459      Cl466   2.454       .  S
C461       N1587   1.336       .  A
N463       N1591   1.323       .  A
C470        N488   1.347       .  A
C470        C507   1.462       .  S
N471        N488   1.323       .  A
N471        N493   1.320       .  A
N471       Co508   2.077       .  S
C472        N497   1.336       .  A
C472        C510   1.451       .  S
C472        H517   1.082       .  S
H473        C514   1.082       .  S
C474        N498   1.345       .  A
C474        C478   1.462       .  S
C474        H503   1.082       .  S
Co475       N493   2.096       .  S
Co475      N1097   2.096       .  S
Co475       N782   2.096   1_556  S
Co475      Cl519   2.453       .  S
N476        C514   1.336       .  A
N476        N483   1.321       .  A
N476       Co477   2.072       .  S
Co477       N480   2.076       .  S
Co477      N1079   2.072       .  S
Co477      N1066   2.076       .  S
C478        N516   1.346       .  A
N479        N486   1.321       .  A
N479        N509   1.328       .  A
N479       Co512   2.096       .  S
N480        N498   1.320       .  A
N480        N516   1.323       .  A
N481        C510   1.351       .  A
N481        N491   1.328       .  A
H482        C507   1.082       .  S
N483        N504   1.328       .  A
N484        N502   1.320       .  A
N484        N489   1.323       .  A
N484      Co1059   2.076   1_545  S
C485        N489   1.346       .  A
C485        C513   1.462       .  S
N486        C501   1.335       .  A
N486       Co508   2.071       .  S
C487        N515   1.345       .  A
C487        C490   1.462       .  S
C487        H521   1.082       .  S
C490        N511   1.347       .  A
N491        N497   1.321       .  A
N491       Co766   2.096   1_545  S
N492        C518   1.335       .  A
N492        N494   1.321       .  A
N492      Co1090   2.071   1_545  S
N493        C507   1.344       .  A
N494        N522   1.328       .  A
N494      Co1094   2.097   1_545  S
H495        C518   1.082       .  S
H496        C513   1.081       .  S
N497      Co1059   2.072   1_545  S
N499        N511   1.323       .  A
N499        N515   1.320       .  A
N499      Co1090   2.078   1_545  S
C500        N504   1.351       .  A
C500        C514   1.452       .  S
C501        C520   1.451       .  S
C501        H505   1.082       .  S
N502        C513   1.345       .  A
N502       Co803   2.097   1_545  S
C506        N522   1.352       .  A
C506        C518   1.451       .  S
Co508      N1074   2.071       .  S
Co508      N1081   2.078       .  S
Co508      Cl519   2.451       .  S
N509        C520   1.351       .  A
Co512      N1076   2.097       .  S
Co512       N793   2.097   1_556  S
Co512      Cl519   2.455       .  S
N515      Co1057   2.096   1_545  S
C523        H529   1.083       .  S
C523        C524   1.405       .  A
C523        C528   1.400       .  A
C524        C525   1.408       .  A
C525        H530   1.083       .  S
C525        C526   1.399       .  A
C526        H531   1.083       .  S
C526        C527   1.405       .  A
C527        C528   1.408       .  A
C528        H532   1.083       .  S
C533        H539   1.083       .  S
C533        C534   1.409       .  A
C533        C538   1.401       .  A
C534        C535   1.405       .  A
C535        H540   1.083       .  S
C535        C536   1.398       .  A
C536        H541   1.083       .  S
C536        C537   1.408       .  A
C537        C538   1.405       .  A
C538        H542   1.083       .  S
C543        H549   1.083       .  S
C543        C544   1.405       .  A
C543        C548   1.399       .  A
C544        C545   1.408       .  A
C545        H550   1.083       .  S
C545        C546   1.400       .  A
C546        H551   1.083       .  S
C546        C547   1.405       .  A
C547        C548   1.408       .  A
C548        H552   1.083       .  S
C553        H559   1.083       .  S
C553        C554   1.405       .  A
C553        C558   1.399       .  A
C554        C555   1.408       .  A
C555        H560   1.083       .  S
C555        C556   1.400       .  A
C556        H561   1.083       .  S
C556        C557   1.405       .  A
C557        C558   1.408       .  A
C558        H562   1.083       .  S
C563        H569   1.083       .  S
C563        C564   1.405       .  A
C563        C568   1.399       .  A
C564        C565   1.408       .  A
C565        H570   1.083       .  S
C565        C566   1.400       .  A
C566        H571   1.083       .  S
C566        C567   1.405       .  A
C567        C568   1.408       .  A
C568        H572   1.083       .  S
C573        H579   1.083       .  S
C573        C574   1.405       .  A
C573        C578   1.398       .  A
C574        C575   1.409       .  A
C575        H580   1.083       .  S
C575        C576   1.402       .  A
C576        H581   1.083       .  S
C576        C577   1.405       .  A
C577        C578   1.408       .  A
C578        H582   1.083       .  S
C583        N584   1.357       .  A
C583        N588   1.360       .  A
C583        C865   1.487       .  S
N584        C585   1.358       .  A
C585        N586   1.359       .  A
C585        C791   1.464       .  S
N586        C587   1.359       .  A
C587        N588   1.361       .  A
C587        C655   1.468       .  S
C589        N590   1.360       .  A
C589        N594   1.355       .  A
C589        C868   1.487       .  S
N590        C591   1.362       .  A
C591        N592   1.360       .  A
C591        C761   1.467       .  S
N592        C593   1.358       .  A
C593        N594   1.355       .  A
C593        C685   1.463       .  S
C595        N596   1.360       .  A
C595        N600   1.356       .  A
C595        C858   1.487       .  S
N596        C597   1.362       .  A
C597        N598   1.360       .  A
C597        C708   1.467       .  S
N598        C599   1.358       .  A
C599        N600   1.356       .  A
C599        C811   1.462       .  S
C601        N602   1.356       .  A
C601        N606   1.360       .  A
C601        C855   1.488       .  S
N602        C603   1.357       .  A
C603        N604   1.359       .  A
C603        C738   1.462       .  S
N604        C605   1.359       .  A
C605        N606   1.361       .  A
C605        C769   1.467       .  S
C607        N608   1.360       .  A
C607        N612   1.356       .  A
C607        C845   1.488       .  S
N608        C609   1.361       .  A
C609        N610   1.360       .  A
C609        C716   1.467       .  S
N610        C611   1.359       .  A
C611        N612   1.357       .  A
C611        C705   1.463       .  S
C613        N614   1.360       .  A
C613        N618   1.356       .  A
C613        C848   1.487       .  S
N614        C615   1.361       .  A
C615        N616   1.360       .  A
C615        C663   1.466       .  S
N616        C617   1.358       .  A
C617        N618   1.356       .  A
C617        C758   1.462       .  S
C619        N620   1.360       .  A
C619        N624   1.356       .  A
C619        C838   1.487       .  S
N620        C621   1.362       .  A
C621        N622   1.360       .  A
C621        C781   1.467       .  S
N622        C623   1.358       .  A
C623        N624   1.356       .  A
C623        C744   1.462       .  S
C625        N626   1.356       .  A
C625        N630   1.360       .  A
C625        C835   1.488       .  S
N626        C627   1.357       .  A
C627        N628   1.358       .  A
C627        C801   1.462       .  S
N628        C629   1.359       .  A
C629        N630   1.361       .  A
C629        C723   1.466       .  S
C631        N632   1.360       .  A
C631        N636   1.356       .  A
C631        C825   1.488       .  S
N632        C633   1.361       .  A
C633        N634   1.360       .  A
C633        C675   1.468       .  S
N634        C635   1.359       .  A
C635        N636   1.357       .  A
C635        C748   1.463       .  S
C637        N638   1.360       .  A
C637        N642   1.356       .  A
C637        C828   1.487       .  S
N638        C639   1.362       .  A
C639        N640   1.360       .  A
C639        C728   1.466       .  S
N640        C641   1.358       .  A
C641        N642   1.356       .  A
C641        C695   1.462       .  S
C643        N644   1.356       .  A
C643        N648   1.360       .  A
C643        C815   1.488       .  S
N644        C645   1.357       .  A
C645        N646   1.358       .  A
C645        C797   1.462       .  S
N646        C647   1.360       .  A
C647        N648   1.361       .  A
C647        C670   1.466       .  S
C649        N650   1.360       .  A
C649        N654   1.356       .  A
C649        C818   1.488       .  S
N650        C651   1.361       .  A
C651        N652   1.360       .  A
C651        C776   1.467       .  S
N652        C653   1.358       .  A
C653        N654   1.357       .  A
C653        C691   1.463       .  S
C655        N673   1.346       .  A
C655        C692   1.463       .  S
N656        N673   1.323       .  A
N656        N678   1.320       .  A
N656       Co693   2.076       .  S
C657        N682   1.335       .  A
C657        C695   1.451       .  S
C657        H702   1.082       .  S
H658        C699   1.082       .  S
C659        N683   1.344       .  A
C659        C663   1.461       .  S
C659        H688   1.082       .  S
Co660       N969   2.099       .  S
Co660       N668   2.097       .  S
Co660       N991   2.099       .  S
Co660       N676   2.098       .  S
Co660      Cl704   2.454       .  S
N661        C699   1.335       .  A
N661        N668   1.321       .  A
N661       Co662   2.071       .  S
Co662       N665   2.078       .  S
Co662       N682   2.071       .  S
Co662       N669   2.077       .  S
Co662      Cl704   2.452       .  S
C663        N701   1.347       .  A
N664        N671   1.321       .  A
N664        N694   1.328       .  A
N664       Co988   2.095   1_554  S
N665        N683   1.320       .  A
N665        N701   1.323       .  A
N666        C695   1.352       .  A
N666        N676   1.328       .  A
H667        C692   1.081       .  S
N668        N689   1.328       .  A
N669        N687   1.320       .  A
N669        N674   1.323       .  A
C670        N674   1.347       .  A
C670        C698   1.461       .  S
N671        C686   1.336       .  A
N671       Co693   2.073       .  S
C672        N700   1.346       .  A
C672        C675   1.463       .  S
C672        H706   1.081       .  S
C675        N696   1.346       .  A
N676        N682   1.321       .  A
N677        C703   1.336       .  A
N677        N679   1.321       .  A
N677       Co693   2.072       .  S
N678        C692   1.346       .  A
N678       Co951   2.099   1_554  S
N679        N707   1.328       .  A
N679       Co988   2.095   1_554  S
H680        C703   1.082       .  S
H681        C698   1.082       .  S
N683       Co697   2.094       .  S
N684        N696   1.323       .  A
N684        N700   1.320       .  A
N684       Co693   2.077       .  S
C685        N689   1.351       .  A
C685        C699   1.451       .  S
C686        C705   1.452       .  S
C686        H690   1.082       .  S
N687        C698   1.344       .  A
N687       Co697   2.094       .  S
C691        N707   1.351       .  A
C691        C703   1.451       .  S
Co693      Cl995   2.452   1_554  S
N694        C705   1.351       .  A
Co697       N955   2.095       .  S
Co697       N970   2.095       .  S
Co697      Cl704   2.453       .  S
N700       Co951   2.099   1_554  S
Cl704      Co984   2.452       .  S
C708        N726   1.347       .  A
C708        C745   1.461       .  S
N709       N1890   1.323       .  A
N709        N731   1.320       .  A
N709       Co746   2.078       .  S
C710        N735   1.336       .  A
C710        C748   1.452       .  S
C710        H755   1.082       .  S
H711        C752   1.082       .  S
C712       N1900   1.345       .  A
C712        C716   1.462       .  S
C712        H741   1.081       .  S
Co713       N731   2.095       .  S
Co713      N1012   2.095       .  S
Co713       N753   2.094       .  S
Co713      N1020   2.095       .  S
Co713      Cl757   2.453       .  S
N714       C1916   1.336       .  A
N714        N721   1.321       .  A
N714       Co715   2.072       .  S
Co715       N718   2.076       .  S
Co715       N735   2.072       .  S
Co715       N722   2.075       .  S
Co715     Cl1048   2.451   1_554  S
C716        N754   1.346       .  A
N717        N724   1.321       .  A
N717       N1911   1.328       .  A
N717       Co750   2.097       .  S
N718        N736   1.320       .  A
N718       N1918   1.323       .  A
N719        C748   1.351       .  A
N719        N729   1.328       .  A
H720        C745   1.082       .  S
N721       N1906   1.328       .  A
N721      Co1004   2.095   1_554  S
N722        N740   1.320       .  A
N722        N727   1.322       .  A
C723        N727   1.346       .  A
C723        C751   1.463       .  S
N724       C1903   1.335       .  A
N724       Co746   2.071       .  S
C725        N753   1.344       .  A
C725        C728   1.461       .  S
C725        H759   1.082       .  S
N726       N1873   1.323       .  A
C728        N749   1.346       .  A
N729        N735   1.321       .  A
N729      Co1004   2.095   1_554  S
N730        C756   1.335       .  A
N730        N732   1.321       .  A
N730       Co746   2.071       .  S
N731       C1909   1.344       .  A
N732        N760   1.328       .  A
N732       Co750   2.096       .  S
H733        C756   1.082       .  S
H734        C751   1.082       .  S
N736       C1876   1.345       .  A
N736      Co1041   2.097   1_554  S
N737        N749   1.323       .  A
N737        N753   1.320       .  A
N737       Co746   2.076       .  S
C738        N742   1.351       .  A
C738        C752   1.452       .  S
C739       N1888   1.335       .  A
C739        C758   1.451       .  S
C739        H743   1.082       .  S
N740        C751   1.345       .  A
N740      Co1041   2.097   1_554  S
N742       N1885   1.328       .  A
C744        N760   1.351       .  A
C744        C756   1.451       .  S
C745       N1895   1.344       .  A
Co746      Cl757   2.451       .  S
N747        C758   1.351       .  A
N747       N1881   1.328       .  A
Co750      N1027   2.097       .  S
Co750      N1031   2.097       .  S
Co750      Cl757   2.454       .  S
C752       N1878   1.336       .  A
N754       N1882   1.323       .  A
Cl757     Co1006   2.451       .  S
C761        N779   1.347       .  A
C761        C798   1.462       .  S
N762        N779   1.323       .  A
N762        N784   1.320       .  A
N762       Co799   2.077       .  S
C763        N788   1.336       .  A
C763        C801   1.451       .  S
C763        H808   1.082       .  S
H764        C805   1.082       .  S
C765        N789   1.345       .  A
C765        C769   1.462       .  S
C765        H794   1.082       .  S
Co766       N784   2.096       .  S
Co766      N1065   2.096       .  S
Co766      Cl810   2.453       .  S
N767        C805   1.336       .  A
N767        N774   1.321       .  A
N767       Co768   2.072       .  S
Co768       N771   2.076       .  S
Co768     Cl1101   2.451   1_554  S
C769        N807   1.346       .  A
N770        N777   1.321       .  A
N770        N800   1.328       .  A
N770       Co803   2.096       .  S
N771        N789   1.320       .  A
N771        N807   1.323       .  A
N772        C801   1.351       .  A
N772        N782   1.328       .  A
H773        C798   1.082       .  S
N774        N795   1.328       .  A
N774      Co1057   2.096   1_554  S
N775        N793   1.320       .  A
N775        N780   1.323       .  A
C776        N780   1.346       .  A
C776        C804   1.462       .  S
N777        C792   1.335       .  A
N777       Co799   2.071       .  S
C778        N806   1.345       .  A
C778        C781   1.462       .  S
C778        H812   1.082       .  S
C781        N802   1.347       .  A
N782        N788   1.321       .  A
N783        C809   1.335       .  A
N783        N785   1.321       .  A
N784        C798   1.344       .  A
N785        N813   1.328       .  A
H786        C809   1.082       .  S
H787        C804   1.081       .  S
N789      Co1094   2.097   1_554  S
N790        N802   1.323       .  A
N790        N806   1.320       .  A
C791        N795   1.351       .  A
C791        C805   1.452       .  S
C792        C811   1.451       .  S
C792        H796   1.082       .  S
N793        C804   1.345       .  A
C797        N813   1.352       .  A
C797        C809   1.451       .  S
Co799      Cl810   2.451       .  S
N800        C811   1.351       .  A
Co803      N1080   2.097       .  S
Co803      Cl810   2.455       .  S
Cl810     Co1059   2.451       .  S
C814        H820   1.083       .  S
C814        C815   1.405       .  A
C814        C819   1.400       .  A
C815        C816   1.408       .  A
C816        H821   1.083       .  S
C816        C817   1.399       .  A
C817        H822   1.083       .  S
C817        C818   1.405       .  A
C818        C819   1.408       .  A
C819        H823   1.083       .  S
C824        H830   1.083       .  S
C824        C825   1.409       .  A
C824        C829   1.401       .  A
C825        C826   1.405       .  A
C826        H831   1.083       .  S
C826        C827   1.398       .  A
C827        H832   1.083       .  S
C827        C828   1.408       .  A
C828        C829   1.405       .  A
C829        H833   1.083       .  S
C834        H840   1.083       .  S
C834        C835   1.405       .  A
C834        C839   1.399       .  A
C835        C836   1.408       .  A
C836        H841   1.083       .  S
C836        C837   1.400       .  A
C837        H842   1.083       .  S
C837        C838   1.405       .  A
C838        C839   1.408       .  A
C839        H843   1.083       .  S
C844        H850   1.083       .  S
C844        C845   1.405       .  A
C844        C849   1.399       .  A
C845        C846   1.408       .  A
C846        H851   1.083       .  S
C846        C847   1.400       .  A
C847        H852   1.083       .  S
C847        C848   1.405       .  A
C848        C849   1.408       .  A
C849        H853   1.083       .  S
C854        H860   1.083       .  S
C854        C855   1.405       .  A
C854        C859   1.399       .  A
C855        C856   1.408       .  A
C856        H861   1.083       .  S
C856        C857   1.400       .  A
C857        H862   1.083       .  S
C857        C858   1.405       .  A
C858        C859   1.408       .  A
C859        H863   1.083       .  S
C864        H870   1.083       .  S
C864        C865   1.405       .  A
C864        C869   1.398       .  A
C865        C866   1.409       .  A
C866        H871   1.083       .  S
C866        C867   1.402       .  A
C867        H872   1.083       .  S
C867        C868   1.405       .  A
C868        C869   1.408       .  A
C869        H873   1.083       .  S
C874        N875   1.357       .  A
C874        N879   1.360       .  A
C874       C1156   1.487       .  S
N875        C876   1.358       .  A
C876        N877   1.359       .  A
C876       C1082   1.464       .  S
N877        C878   1.359       .  A
C878        N879   1.361       .  A
C878        C946   1.468       .  S
C880        N881   1.360       .  A
C880        N885   1.355       .  A
C880       C1159   1.487       .  S
N881        C882   1.362       .  A
C882        N883   1.360       .  A
C882       C1052   1.467       .  S
N883        C884   1.358       .  A
C884        N885   1.355       .  A
C884        C976   1.463       .  S
C886        N887   1.360       .  A
C886        N891   1.356       .  A
C886       C1149   1.487       .  S
N887        C888   1.362       .  A
C888        N889   1.360       .  A
C888        C999   1.467       .  S
N889        C890   1.358       .  A
C890        N891   1.356       .  A
C890       C1102   1.462       .  S
C892        N893   1.356       .  A
C892        N897   1.360       .  A
C892       C1146   1.488       .  S
N893        C894   1.357       .  A
C894        N895   1.359       .  A
C894       C1029   1.462       .  S
N895        C896   1.359       .  A
C896        N897   1.361       .  A
C896       C1060   1.467       .  S
C898        N899   1.360       .  A
C898        N903   1.356       .  A
C898       C1136   1.488       .  S
N899        C900   1.361       .  A
C900        N901   1.360       .  A
C900       C1007   1.467       .  S
N901        C902   1.359       .  A
C902        N903   1.357       .  A
C902        C996   1.463       .  S
C904        N905   1.360       .  A
C904        N909   1.356       .  A
C904       C1139   1.487       .  S
N905        C906   1.361       .  A
C906        N907   1.360       .  A
C906        C954   1.466       .  S
N907        C908   1.358       .  A
C908        N909   1.356       .  A
C908       C1049   1.462       .  S
C910        N911   1.360       .  A
C910        N915   1.356       .  A
C910       C1129   1.487       .  S
N911        C912   1.362       .  A
C912        N913   1.360       .  A
C912       C1072   1.467       .  S
N913        C914   1.358       .  A
C914        N915   1.356       .  A
C914       C1035   1.462       .  S
C916        N917   1.356       .  A
C916        N921   1.360       .  A
C916       C1126   1.488       .  S
N917        C918   1.357       .  A
C918        N919   1.358       .  A
C918       C1092   1.462       .  S
N919        C920   1.359       .  A
C920        N921   1.361       .  A
C920       C1014   1.466       .  S
C922        N923   1.360       .  A
C922        N927   1.356       .  A
C922       C1116   1.488       .  S
N923        C924   1.361       .  A
C924        N925   1.360       .  A
C924        C966   1.468       .  S
N925        C926   1.359       .  A
C926        N927   1.357       .  A
C926       C1039   1.463       .  S
C928        N929   1.360       .  A
C928        N933   1.356       .  A
C928       C1119   1.487       .  S
N929        C930   1.362       .  A
C930        N931   1.360       .  A
C930       C1019   1.466       .  S
N931        C932   1.358       .  A
C932        N933   1.356       .  A
C932        C986   1.462       .  S
C934        N935   1.356       .  A
C934        N939   1.360       .  A
C934       C1106   1.488       .  S
N935        C936   1.357       .  A
C936        N937   1.358       .  A
C936       C1088   1.462       .  S
N937        C938   1.360       .  A
C938        N939   1.361       .  A
C938        C961   1.466       .  S
C940        N941   1.360       .  A
C940        N945   1.356       .  A
C940       C1109   1.488       .  S
N941        C942   1.361       .  A
C942        N943   1.360       .  A
C942       C1067   1.467       .  S
N943        C944   1.358       .  A
C944        N945   1.357       .  A
C944        C982   1.463       .  S
C946        N964   1.346       .  A
C946        C983   1.463       .  S
N947        N964   1.323       .  A
N947        N969   1.320       .  A
N947       Co984   2.076       .  S
C948        N973   1.335       .  A
C948        C986   1.451       .  S
C948        H993   1.082       .  S
H949        C990   1.082       .  S
C950        N974   1.344       .  A
C950        C954   1.461       .  S
C950        H979   1.082       .  S
Co951       N959   2.097       .  S
Co951       N967   2.098       .  S
Co951      Cl995   2.454       .  S
N952        C990   1.335       .  A
N952        N959   1.321       .  A
N952       Co953   2.071       .  S
Co953       N956   2.078       .  S
Co953       N973   2.071       .  S
Co953       N960   2.077       .  S
Co953      Cl995   2.452       .  S
C954        N992   1.347       .  A
N955        N962   1.321       .  A
N955        N985   1.328       .  A
N956        N974   1.320       .  A
N956        N992   1.323       .  A
N957        C986   1.352       .  A
N957        N967   1.328       .  A
H958        C983   1.081       .  S
N959        N980   1.328       .  A
N960        N978   1.320       .  A
N960        N965   1.323       .  A
C961        N965   1.347       .  A
C961        C989   1.461       .  S
N962        C977   1.336       .  A
N962       Co984   2.073       .  S
C963        N991   1.346       .  A
C963        C966   1.463       .  S
C963        H997   1.081       .  S
C966        N987   1.346       .  A
N967        N973   1.321       .  A
N968        C994   1.336       .  A
N968        N970   1.321       .  A
N968       Co984   2.072       .  S
N969        C983   1.346       .  A
N970        N998   1.328       .  A
H971        C994   1.082       .  S
H972        C989   1.082       .  S
N974       Co988   2.094       .  S
N975        N987   1.323       .  A
N975        N991   1.320       .  A
N975       Co984   2.077       .  S
C976        N980   1.351       .  A
C976        C990   1.451       .  S
C977        C996   1.452       .  S
C977        H981   1.082       .  S
N978        C989   1.344       .  A
N978       Co988   2.094       .  S
C982        N998   1.351       .  A
C982        C994   1.451       .  S
N985        C996   1.351       .  A
Co988      Cl995   2.453       .  S
C999       N1017   1.347       .  A
C999       C1036   1.461       .  S
N1000      N2181   1.323       .  A
N1000      N1022   1.320       .  A
N1000     Co1037   2.078       .  S
C1001      N1026   1.336       .  A
C1001      C1039   1.452       .  S
C1001      H1046   1.082       .  S
H1002      C1043   1.082       .  S
C1003      N2191   1.345       .  A
C1003      C1007   1.462       .  S
C1003      H1032   1.081       .  S
Co1004     N1022   2.095       .  S
Co1004     N1044   2.094       .  S
Co1004    Cl1048   2.453       .  S
N1005      C2207   1.336       .  A
N1005      N1012   1.321       .  A
N1005     Co1006   2.072       .  S
Co1006     N1009   2.076       .  S
Co1006     N1026   2.072       .  S
Co1006     N1013   2.075       .  S
C1007      N1045   1.346       .  A
N1008      N1015   1.321       .  A
N1008      N2202   1.328       .  A
N1008     Co1041   2.097       .  S
N1009      N1027   1.320       .  A
N1009      N2209   1.323       .  A
N1010      C1039   1.351       .  A
N1010      N1020   1.328       .  A
H1011      C1036   1.082       .  S
N1012      N2197   1.328       .  A
N1013      N1031   1.320       .  A
N1013      N1018   1.322       .  A
C1014      N1018   1.346       .  A
C1014      C1042   1.463       .  S
N1015      C2194   1.335       .  A
N1015     Co1037   2.071       .  S
C1016      N1044   1.344       .  A
C1016      C1019   1.461       .  S
C1016      H1050   1.082       .  S
N1017      N2164   1.323       .  A
C1019      N1040   1.346       .  A
N1020      N1026   1.321       .  A
N1021      C1047   1.335       .  A
N1021      N1023   1.321       .  A
N1021     Co1037   2.071       .  S
N1022      C2200   1.344       .  A
N1023      N1051   1.328       .  A
N1023     Co1041   2.096       .  S
H1024      C1047   1.082       .  S
H1025      C1042   1.082       .  S
N1027      C2167   1.345       .  A
N1028      N1040   1.323       .  A
N1028      N1044   1.320       .  A
N1028     Co1037   2.076       .  S
C1029      N1033   1.351       .  A
C1029      C1043   1.452       .  S
C1030      N2179   1.335       .  A
C1030      C1049   1.451       .  S
C1030      H1034   1.082       .  S
N1031      C1042   1.345       .  A
N1033      N2176   1.328       .  A
C1035      N1051   1.351       .  A
C1035      C1047   1.451       .  S
C1036      N2186   1.344       .  A
Co1037    Cl1048   2.451       .  S
N1038      C1049   1.351       .  A
N1038      N2172   1.328       .  A
Co1041    Cl1048   2.454       .  S
C1043      N2169   1.336       .  A
N1045      N2173   1.323       .  A
C1052      N1070   1.347       .  A
C1052      C1089   1.462       .  S
N1053      N1070   1.323       .  A
N1053      N1075   1.320       .  A
N1053     Co1090   2.077       .  S
C1054      N1079   1.336       .  A
C1054      C1092   1.451       .  S
C1054      H1099   1.082       .  S
H1055      C1096   1.082       .  S
C1056      N1080   1.345       .  A
C1056      C1060   1.462       .  S
C1056      H1085   1.082       .  S
Co1057     N1075   2.096       .  S
Co1057    Cl1101   2.453       .  S
N1058      C1096   1.336       .  A
N1058      N1065   1.321       .  A
N1058     Co1059   2.072       .  S
Co1059     N1062   2.076       .  S
C1060      N1098   1.346       .  A
N1061      N1068   1.321       .  A
N1061      N1091   1.328       .  A
N1061     Co1094   2.096       .  S
N1062      N1080   1.320       .  A
N1062      N1098   1.323       .  A
N1063      C1092   1.351       .  A
N1063      N1073   1.328       .  A
H1064      C1089   1.082       .  S
N1065      N1086   1.328       .  A
N1066      N1084   1.320       .  A
N1066      N1071   1.323       .  A
C1067      N1071   1.346       .  A
C1067      C1095   1.462       .  S
N1068      C1083   1.335       .  A
N1068     Co1090   2.071       .  S
C1069      N1097   1.345       .  A
C1069      C1072   1.462       .  S
C1069      H1103   1.082       .  S
C1072      N1093   1.347       .  A
N1073      N1079   1.321       .  A
N1074      C1100   1.335       .  A
N1074      N1076   1.321       .  A
N1075      C1089   1.344       .  A
N1076      N1104   1.328       .  A
H1077      C1100   1.082       .  S
H1078      C1095   1.081       .  S
N1081      N1093   1.323       .  A
N1081      N1097   1.320       .  A
C1082      N1086   1.351       .  A
C1082      C1096   1.452       .  S
C1083      C1102   1.451       .  S
C1083      H1087   1.082       .  S
N1084      C1095   1.345       .  A
C1088      N1104   1.352       .  A
C1088      C1100   1.451       .  S
Co1090    Cl1101   2.451       .  S
N1091      C1102   1.351       .  A
Co1094    Cl1101   2.455       .  S
C1105      H1111   1.083       .  S
C1105      C1106   1.405       .  A
C1105      C1110   1.400       .  A
C1106      C1107   1.408       .  A
C1107      H1112   1.083       .  S
C1107      C1108   1.399       .  A
C1108      H1113   1.083       .  S
C1108      C1109   1.405       .  A
C1109      C1110   1.408       .  A
C1110      H1114   1.083       .  S
C1115      H1121   1.083       .  S
C1115      C1116   1.409       .  A
C1115      C1120   1.401       .  A
C1116      C1117   1.405       .  A
C1117      H1122   1.083       .  S
C1117      C1118   1.398       .  A
C1118      H1123   1.083       .  S
C1118      C1119   1.408       .  A
C1119      C1120   1.405       .  A
C1120      H1124   1.083       .  S
C1125      H1131   1.083       .  S
C1125      C1126   1.405       .  A
C1125      C1130   1.399       .  A
C1126      C1127   1.408       .  A
C1127      H1132   1.083       .  S
C1127      C1128   1.400       .  A
C1128      H1133   1.083       .  S
C1128      C1129   1.405       .  A
C1129      C1130   1.408       .  A
C1130      H1134   1.083       .  S
C1135      H1141   1.083       .  S
C1135      C1136   1.405       .  A
C1135      C1140   1.399       .  A
C1136      C1137   1.408       .  A
C1137      H1142   1.083       .  S
C1137      C1138   1.400       .  A
C1138      H1143   1.083       .  S
C1138      C1139   1.405       .  A
C1139      C1140   1.408       .  A
C1140      H1144   1.083       .  S
C1145      H1151   1.083       .  S
C1145      C1146   1.405       .  A
C1145      C1150   1.399       .  A
C1146      C1147   1.408       .  A
C1147      H1152   1.083       .  S
C1147      C1148   1.400       .  A
C1148      H1153   1.083       .  S
C1148      C1149   1.405       .  A
C1149      C1150   1.408       .  A
C1150      H1154   1.083       .  S
C1155      H1161   1.083       .  S
C1155      C1156   1.405       .  A
C1155      C1160   1.398       .  A
C1156      C1157   1.409       .  A
C1157      H1162   1.083       .  S
C1157      C1158   1.402       .  A
C1158      H1163   1.083       .  S
C1158      C1159   1.405       .  A
C1159      C1160   1.408       .  A
C1160      H1164   1.083       .  S
C1165      N1166   1.357       .  A
C1165      N1170   1.360       .  A
C1165      C1447   1.487       .  S
N1166      C1167   1.358       .  A
C1167      N1168   1.359       .  A
C1167      C1373   1.464       .  S
N1168      C1169   1.359       .  A
C1169      N1170   1.361       .  A
C1169      C1237   1.468       .  S
C1171      N1172   1.360       .  A
C1171      N1176   1.355       .  A
C1171      C1450   1.487       .  S
N1172      C1173   1.362       .  A
C1173      N1174   1.360       .  A
C1173      C1343   1.467       .  S
N1174      C1175   1.358       .  A
C1175      N1176   1.355       .  A
C1175      C1267   1.463       .  S
C1177      N1178   1.360       .  A
C1177      N1182   1.356       .  A
C1177      C1440   1.487       .  S
N1178      C1179   1.362       .  A
C1179      N1180   1.360       .  A
C1179      C1290   1.467       .  S
N1180      C1181   1.358       .  A
C1181      N1182   1.356       .  A
C1181      C1393   1.462       .  S
C1183      N1184   1.356       .  A
C1183      N1188   1.360       .  A
C1183      C1437   1.488       .  S
N1184      C1185   1.357       .  A
C1185      N1186   1.359       .  A
C1185      C1320   1.462       .  S
N1186      C1187   1.359       .  A
C1187      N1188   1.361       .  A
C1187      C1351   1.467       .  S
C1189      N1190   1.360       .  A
C1189      N1194   1.356       .  A
C1189      C1427   1.488       .  S
N1190      C1191   1.361       .  A
C1191      N1192   1.360       .  A
C1191      C1298   1.467       .  S
N1192      C1193   1.359       .  A
C1193      N1194   1.357       .  A
C1193      C1287   1.463       .  S
C1195      N1196   1.360       .  A
C1195      N1200   1.356       .  A
C1195      C1430   1.487       .  S
N1196      C1197   1.361       .  A
C1197      N1198   1.360       .  A
C1197      C1245   1.466       .  S
N1198      C1199   1.358       .  A
C1199      N1200   1.356       .  A
C1199      C1340   1.462       .  S
C1201      N1202   1.360       .  A
C1201      N1206   1.356       .  A
C1201      C1420   1.487       .  S
N1202      C1203   1.362       .  A
C1203      N1204   1.360       .  A
C1203      C1363   1.467       .  S
N1204      C1205   1.358       .  A
C1205      N1206   1.356       .  A
C1205      C1326   1.462       .  S
C1207      N1208   1.356       .  A
C1207      N1212   1.360       .  A
C1207      C1417   1.488       .  S
N1208      C1209   1.357       .  A
C1209      N1210   1.358       .  A
C1209      C1383   1.462       .  S
N1210      C1211   1.359       .  A
C1211      N1212   1.361       .  A
C1211      C1305   1.466       .  S
C1213      N1214   1.360       .  A
C1213      N1218   1.356       .  A
C1213      C1407   1.488       .  S
N1214      C1215   1.361       .  A
C1215      N1216   1.360       .  A
C1215      C1257   1.468       .  S
N1216      C1217   1.359       .  A
C1217      N1218   1.357       .  A
C1217      C1330   1.463       .  S
C1219      N1220   1.360       .  A
C1219      N1224   1.356       .  A
C1219      C1410   1.487       .  S
N1220      C1221   1.362       .  A
C1221      N1222   1.360       .  A
C1221      C1310   1.466       .  S
N1222      C1223   1.358       .  A
C1223      N1224   1.356       .  A
C1223      C1277   1.462       .  S
C1225      N1226   1.356       .  A
C1225      N1230   1.360       .  A
C1225      C1397   1.488       .  S
N1226      C1227   1.357       .  A
C1227      N1228   1.358       .  A
C1227      C1379   1.462       .  S
N1228      C1229   1.360       .  A
C1229      N1230   1.361       .  A
C1229      C1252   1.466       .  S
C1231      N1232   1.360       .  A
C1231      N1236   1.356       .  A
C1231      C1400   1.488       .  S
N1232      C1233   1.361       .  A
C1233      N1234   1.360       .  A
C1233      C1358   1.467       .  S
N1234      C1235   1.358       .  A
C1235      N1236   1.357       .  A
C1235      C1273   1.463       .  S
C1237      N1255   1.346       .  A
C1237      C1274   1.463       .  S
N1238      N1255   1.323       .  A
N1238      N1260   1.320       .  A
N1238     Co1275   2.076       .  S
C1239      N1264   1.335       .  A
C1239      C1277   1.451       .  S
C1239      H1284   1.082       .  S
H1240      C1281   1.082       .  S
C1241      N1265   1.344       .  A
C1241      C1245   1.461       .  S
C1241      H1270   1.082       .  S
Co1242     N1551   2.099       .  S
Co1242     N1250   2.097       .  S
Co1242     N1573   2.099       .  S
Co1242     N1258   2.098       .  S
Co1242    Cl1286   2.454       .  S
N1243      C1281   1.335       .  A
N1243      N1250   1.321       .  A
N1243     Co1244   2.071       .  S
Co1244     N1247   2.078       .  S
Co1244     N1264   2.071       .  S
Co1244     N1251   2.077       .  S
Co1244    Cl1286   2.452       .  S
C1245      N1283   1.347       .  A
N1246      N1253   1.321       .  A
N1246      N1276   1.328       .  A
N1246     Co1570   2.095   1_554  S
N1247      N1265   1.320       .  A
N1247      N1283   1.323       .  A
N1248      C1277   1.352       .  A
N1248      N1258   1.328       .  A
H1249      C1274   1.081       .  S
N1250      N1271   1.328       .  A
N1251      N1269   1.320       .  A
N1251      N1256   1.323       .  A
C1252      N1256   1.347       .  A
C1252      C1280   1.461       .  S
N1253      C1268   1.336       .  A
N1253     Co1275   2.073       .  S
C1254      N1282   1.346       .  A
C1254      C1257   1.463       .  S
C1254      H1288   1.081       .  S
C1257      N1278   1.346       .  A
N1258      N1264   1.321       .  A
N1259      C1285   1.336       .  A
N1259      N1261   1.321       .  A
N1259     Co1275   2.072       .  S
N1260      C1274   1.346       .  A
N1260     Co1533   2.099   1_554  S
N1261      N1289   1.328       .  A
N1261     Co1570   2.095   1_554  S
H1262      C1285   1.082       .  S
H1263      C1280   1.082       .  S
N1265     Co1279   2.094       .  S
N1266      N1278   1.323       .  A
N1266      N1282   1.320       .  A
N1266     Co1275   2.077       .  S
C1267      N1271   1.351       .  A
C1267      C1281   1.451       .  S
C1268      C1287   1.452       .  S
C1268      H1272   1.082       .  S
N1269      C1280   1.344       .  A
N1269     Co1279   2.094       .  S
C1273      N1289   1.351       .  A
C1273      C1285   1.451       .  S
Co1275    Cl1577   2.452   1_554  S
N1276      C1287   1.351       .  A
Co1279     N1537   2.095       .  S
Co1279     N1552   2.095       .  S
Co1279    Cl1286   2.453       .  S
N1282     Co1533   2.099   1_554  S
Cl1286    Co1566   2.452       .  S
C1290      N1308   1.347       .  A
C1290      C1327   1.461       .  S
N1291      N1313   1.320       .  A
N1291     Co1328   2.078   1_455  S
C1292      N1317   1.336       .  A
C1292      C1330   1.452       .  S
C1292      H1337   1.082       .  S
H1293      C1334   1.082       .  S
C1294      C1298   1.462       .  S
C1294      H1323   1.081       .  S
Co1295     N1313   2.095   1_655  S
Co1295     N1594   2.095   1_655  S
Co1295     N1335   2.094       .  S
Co1295     N1602   2.095       .  S
Co1295    Cl1339   2.453       .  S
N1296      N1303   1.321       .  A
N1296     Co1297   2.072   1_455  S
Co1297     N1300   2.076   1_655  S
Co1297     N1317   2.072       .  S
Co1297     N1304   2.075       .  S
Co1297    Cl1630   2.451   1_554  S
C1298      N1336   1.346       .  A
N1299      N1306   1.321       .  A
N1299     Co1332   2.097   1_455  S
N1300      N1318   1.320       .  A
N1301      C1330   1.351       .  A
N1301      N1311   1.328       .  A
H1302      C1327   1.082       .  S
N1303     Co1586   2.095   1_454  S
N1304      N1322   1.320       .  A
N1304      N1309   1.322       .  A
C1305      N1309   1.346       .  A
C1305      C1333   1.463       .  S
N1306     Co1328   2.071   1_455  S
C1307      N1335   1.344       .  A
C1307      C1310   1.461       .  S
C1307      H1341   1.082       .  S
C1310      N1331   1.346       .  A
N1311      N1317   1.321       .  A
N1311     Co1586   2.095   1_554  S
N1312      C1338   1.335       .  A
N1312      N1314   1.321       .  A
N1312     Co1328   2.071       .  S
N1314      N1342   1.328       .  A
N1314     Co1332   2.096       .  S
H1315      C1338   1.082       .  S
H1316      C1333   1.082       .  S
N1318     Co1623   2.097   1_454  S
N1319      N1331   1.323       .  A
N1319      N1335   1.320       .  A
N1319     Co1328   2.076       .  S
C1320      N1324   1.351       .  A
C1320      C1334   1.452       .  S
C1321      C1340   1.451       .  S
C1321      H1325   1.082       .  S
N1322      C1333   1.345       .  A
N1322     Co1623   2.097   1_554  S
C1326      N1342   1.351       .  A
C1326      C1338   1.451       .  S
Co1328    Cl1339   2.451       .  S
N1329      C1340   1.351       .  A
Co1332     N1609   2.097   1_655  S
Co1332     N1613   2.097       .  S
Co1332    Cl1339   2.454       .  S
Cl1339    Co1588   2.451       .  S
C1343      N1361   1.347       .  A
C1343      C1380   1.462       .  S
N1344      N1361   1.323       .  A
N1344      N1366   1.320       .  A
N1344     Co1381   2.077       .  S
C1345      N1370   1.336       .  A
C1345      C1383   1.451       .  S
C1345      H1390   1.082       .  S
H1346      C1387   1.082       .  S
C1347      N1371   1.345       .  A
C1347      C1351   1.462       .  S
C1347      H1376   1.082       .  S
Co1348     N1366   2.096       .  S
Co1348     N1647   2.096       .  S
Co1348     N1970   2.096       .  S
Co1348     N2237   2.096       .  S
Co1348    Cl1392   2.453       .  S
N1349      C1387   1.336       .  A
N1349      N1356   1.321       .  A
N1349     Co1350   2.072       .  S
Co1350     N1353   2.076       .  S
Co1350     N1952   2.072       .  S
Co1350     N1939   2.076       .  S
Co1350    Cl1683   2.451   1_554  S
C1351      N1389   1.346       .  A
N1352      N1359   1.321       .  A
N1352      N1382   1.328       .  A
N1352     Co1385   2.096       .  S
N1353      N1371   1.320       .  A
N1353      N1389   1.323       .  A
N1354      C1383   1.351       .  A
N1354      N1364   1.328       .  A
H1355      C1380   1.082       .  S
N1356      N1377   1.328       .  A
N1356     Co1639   2.096   1_554  S
N1357      N1375   1.320       .  A
N1357      N1362   1.323       .  A
N1357     Co1932   2.076   1_545  S
C1358      N1362   1.346       .  A
C1358      C1386   1.462       .  S
N1359      C1374   1.335       .  A
N1359     Co1381   2.071       .  S
C1360      N1388   1.345       .  A
C1360      C1363   1.462       .  S
C1360      H1394   1.082       .  S
C1363      N1384   1.347       .  A
N1364      N1370   1.321       .  A
N1364     Co2221   2.096   1_544  S
N1365      C1391   1.335       .  A
N1365      N1367   1.321       .  A
N1365     Co1963   2.071   1_545  S
N1366      C1380   1.344       .  A
N1367      N1395   1.328       .  A
N1367     Co1967   2.097   1_545  S
H1368      C1391   1.082       .  S
H1369      C1386   1.081       .  S
N1370     Co1932   2.072   1_545  S
N1371     Co1676   2.097   1_554  S
N1372      N1384   1.323       .  A
N1372      N1388   1.320       .  A
N1372     Co1963   2.078   1_545  S
C1373      N1377   1.351       .  A
C1373      C1387   1.452       .  S
C1374      C1393   1.451       .  S
C1374      H1378   1.082       .  S
N1375      C1386   1.345       .  A
N1375     Co2258   2.097   1_544  S
C1379      N1395   1.352       .  A
C1379      C1391   1.451       .  S
Co1381     N1947   2.071       .  S
Co1381     N1954   2.078       .  S
Co1381    Cl1392   2.451       .  S
N1382      C1393   1.351       .  A
Co1385     N1949   2.097       .  S
Co1385     N1662   2.097       .  S
Co1385     N2248   2.097       .  S
Co1385    Cl1392   2.455       .  S
N1388     Co1930   2.096   1_545  S
Cl1392    Co1641   2.451       .  S
C1396      H1402   1.083       .  S
C1396      C1397   1.405       .  A
C1396      C1401   1.400       .  A
C1397      C1398   1.408       .  A
C1398      H1403   1.083       .  S
C1398      C1399   1.399       .  A
C1399      H1404   1.083       .  S
C1399      C1400   1.405       .  A
C1400      C1401   1.408       .  A
C1401      H1405   1.083       .  S
C1406      H1412   1.083       .  S
C1406      C1407   1.409       .  A
C1406      C1411   1.401       .  A
C1407      C1408   1.405       .  A
C1408      H1413   1.083       .  S
C1408      C1409   1.398       .  A
C1409      H1414   1.083       .  S
C1409      C1410   1.408       .  A
C1410      C1411   1.405       .  A
C1411      H1415   1.083       .  S
C1416      H1422   1.083       .  S
C1416      C1417   1.405       .  A
C1416      C1421   1.399       .  A
C1417      C1418   1.408       .  A
C1418      H1423   1.083       .  S
C1418      C1419   1.400       .  A
C1419      H1424   1.083       .  S
C1419      C1420   1.405       .  A
C1420      C1421   1.408       .  A
C1421      H1425   1.083       .  S
C1426      H1432   1.083       .  S
C1426      C1427   1.405       .  A
C1426      C1431   1.399       .  A
C1427      C1428   1.408       .  A
C1428      H1433   1.083       .  S
C1428      C1429   1.400       .  A
C1429      H1434   1.083       .  S
C1429      C1430   1.405       .  A
C1430      C1431   1.408       .  A
C1431      H1435   1.083       .  S
C1436      H1442   1.083       .  S
C1436      C1437   1.405       .  A
C1436      C1441   1.399       .  A
C1437      C1438   1.408       .  A
C1438      H1443   1.083       .  S
C1438      C1439   1.400       .  A
C1439      H1444   1.083       .  S
C1439      C1440   1.405       .  A
C1440      C1441   1.408       .  A
C1441      H1445   1.083       .  S
C1446      H1452   1.083       .  S
C1446      C1447   1.405       .  A
C1446      C1451   1.398       .  A
C1447      C1448   1.409       .  A
C1448      H1453   1.083       .  S
C1448      C1449   1.402       .  A
C1449      H1454   1.083       .  S
C1449      C1450   1.405       .  A
C1450      C1451   1.408       .  A
C1451      H1455   1.083       .  S
C1456      N1457   1.357       .  A
C1456      N1461   1.360       .  A
C1456      C1738   1.487       .  S
N1457      C1458   1.358       .  A
C1458      N1459   1.359       .  A
C1458      C1664   1.464       .  S
N1459      C1460   1.359       .  A
C1460      N1461   1.361       .  A
C1460      C1528   1.468       .  S
C1462      N1463   1.360       .  A
C1462      N1467   1.355       .  A
C1462      C1741   1.487       .  S
N1463      C1464   1.362       .  A
C1464      N1465   1.360       .  A
C1464      C1634   1.467       .  S
N1465      C1466   1.358       .  A
C1466      N1467   1.355       .  A
C1466      C1558   1.463       .  S
C1468      N1469   1.360       .  A
C1468      N1473   1.356       .  A
C1468      C1731   1.487       .  S
N1469      C1470   1.362       .  A
C1470      N1471   1.360       .  A
C1470      C1581   1.467       .  S
N1471      C1472   1.358       .  A
C1472      N1473   1.356       .  A
C1472      C1684   1.462       .  S
C1474      N1475   1.356       .  A
C1474      N1479   1.360       .  A
C1474      C1728   1.488       .  S
N1475      C1476   1.357       .  A
C1476      N1477   1.359       .  A
C1476      C1611   1.462       .  S
N1477      C1478   1.359       .  A
C1478      N1479   1.361       .  A
C1478      C1642   1.467       .  S
C1480      N1481   1.360       .  A
C1480      N1485   1.356       .  A
C1480      C1718   1.488       .  S
N1481      C1482   1.361       .  A
C1482      N1483   1.360       .  A
C1482      C1589   1.467       .  S
N1483      C1484   1.359       .  A
C1484      N1485   1.357       .  A
C1484      C1578   1.463       .  S
C1486      N1487   1.360       .  A
C1486      N1491   1.356       .  A
C1486      C1721   1.487       .  S
N1487      C1488   1.361       .  A
C1488      N1489   1.360       .  A
C1488      C1536   1.466       .  S
N1489      C1490   1.358       .  A
C1490      N1491   1.356       .  A
C1490      C1631   1.462       .  S
C1492      N1493   1.360       .  A
C1492      N1497   1.356       .  A
C1492      C1711   1.487       .  S
N1493      C1494   1.362       .  A
C1494      N1495   1.360       .  A
C1494      C1654   1.467       .  S
N1495      C1496   1.358       .  A
C1496      N1497   1.356       .  A
C1496      C1617   1.462       .  S
C1498      N1499   1.356       .  A
C1498      N1503   1.360       .  A
C1498      C1708   1.488       .  S
N1499      C1500   1.357       .  A
C1500      N1501   1.358       .  A
C1500      C1674   1.462       .  S
N1501      C1502   1.359       .  A
C1502      N1503   1.361       .  A
C1502      C1596   1.466       .  S
C1504      N1505   1.360       .  A
C1504      N1509   1.356       .  A
C1504      C1698   1.488       .  S
N1505      C1506   1.361       .  A
C1506      N1507   1.360       .  A
C1506      C1548   1.468       .  S
N1507      C1508   1.359       .  A
C1508      N1509   1.357       .  A
C1508      C1621   1.463       .  S
C1510      N1511   1.360       .  A
C1510      N1515   1.356       .  A
C1510      C1701   1.487       .  S
N1511      C1512   1.362       .  A
C1512      N1513   1.360       .  A
C1512      C1601   1.466       .  S
N1513      C1514   1.358       .  A
C1514      N1515   1.356       .  A
C1514      C1568   1.462       .  S
C1516      N1517   1.356       .  A
C1516      N1521   1.360       .  A
C1516      C1688   1.488       .  S
N1517      C1518   1.357       .  A
C1518      N1519   1.358       .  A
C1518      C1670   1.462       .  S
N1519      C1520   1.360       .  A
C1520      N1521   1.361       .  A
C1520      C1543   1.466       .  S
C1522      N1523   1.360       .  A
C1522      N1527   1.356       .  A
C1522      C1691   1.488       .  S
N1523      C1524   1.361       .  A
C1524      N1525   1.360       .  A
C1524      C1649   1.467       .  S
N1525      C1526   1.358       .  A
C1526      N1527   1.357       .  A
C1526      C1564   1.463       .  S
C1528      N1546   1.346       .  A
C1528      C1565   1.463       .  S
N1529      N1546   1.323       .  A
N1529      N1551   1.320       .  A
N1529     Co1566   2.076       .  S
C1530      N1555   1.335       .  A
C1530      C1568   1.451       .  S
C1530      H1575   1.082       .  S
H1531      C1572   1.082       .  S
C1532      N1556   1.344       .  A
C1532      C1536   1.461       .  S
C1532      H1561   1.082       .  S
Co1533     N1541   2.097       .  S
Co1533     N1549   2.098       .  S
Co1533    Cl1577   2.454       .  S
N1534      C1572   1.335       .  A
N1534      N1541   1.321       .  A
N1534     Co1535   2.071       .  S
Co1535     N1538   2.078       .  S
Co1535     N1555   2.071       .  S
Co1535     N1542   2.077       .  S
Co1535    Cl1577   2.452       .  S
C1536      N1574   1.347       .  A
N1537      N1544   1.321       .  A
N1537      N1567   1.328       .  A
N1538      N1556   1.320       .  A
N1538      N1574   1.323       .  A
N1539      C1568   1.352       .  A
N1539      N1549   1.328       .  A
H1540      C1565   1.081       .  S
N1541      N1562   1.328       .  A
N1542      N1560   1.320       .  A
N1542      N1547   1.323       .  A
C1543      N1547   1.347       .  A
C1543      C1571   1.461       .  S
N1544      C1559   1.336       .  A
N1544     Co1566   2.073       .  S
C1545      N1573   1.346       .  A
C1545      C1548   1.463       .  S
C1545      H1579   1.081       .  S
C1548      N1569   1.346       .  A
N1549      N1555   1.321       .  A
N1550      C1576   1.336       .  A
N1550      N1552   1.321       .  A
N1550     Co1566   2.072       .  S
N1551      C1565   1.346       .  A
N1552      N1580   1.328       .  A
H1553      C1576   1.082       .  S
H1554      C1571   1.082       .  S
N1556     Co1570   2.094       .  S
N1557      N1569   1.323       .  A
N1557      N1573   1.320       .  A
N1557     Co1566   2.077       .  S
C1558      N1562   1.351       .  A
C1558      C1572   1.451       .  S
C1559      C1578   1.452       .  S
C1559      H1563   1.082       .  S
N1560      C1571   1.344       .  A
N1560     Co1570   2.094       .  S
C1564      N1580   1.351       .  A
C1564      C1576   1.451       .  S
N1567      C1578   1.351       .  A
Co1570    Cl1577   2.453       .  S
C1581      N1599   1.347       .  A
C1581      C1618   1.461       .  S
N1582      N1604   1.320       .  A
N1582     Co1619   2.078   1_455  S
C1583      N1608   1.336       .  A
C1583      C1621   1.452       .  S
C1583      H1628   1.082       .  S
H1584      C1625   1.082       .  S
C1585      C1589   1.462       .  S
C1585      H1614   1.081       .  S
Co1586     N1604   2.095   1_655  S
Co1586     N1626   2.094       .  S
Co1586    Cl1630   2.453       .  S
N1587      N1594   1.321       .  A
N1587     Co1588   2.072   1_455  S
Co1588     N1591   2.076   1_655  S
Co1588     N1608   2.072       .  S
Co1588     N1595   2.075       .  S
C1589      N1627   1.346       .  A
N1590      N1597   1.321       .  A
N1590     Co1623   2.097   1_455  S
N1591      N1609   1.320       .  A
N1592      C1621   1.351       .  A
N1592      N1602   1.328       .  A
H1593      C1618   1.082       .  S
N1595      N1613   1.320       .  A
N1595      N1600   1.322       .  A
C1596      N1600   1.346       .  A
C1596      C1624   1.463       .  S
N1597     Co1619   2.071   1_455  S
C1598      N1626   1.344       .  A
C1598      C1601   1.461       .  S
C1598      H1632   1.082       .  S
C1601      N1622   1.346       .  A
N1602      N1608   1.321       .  A
N1603      C1629   1.335       .  A
N1603      N1605   1.321       .  A
N1603     Co1619   2.071       .  S
N1605      N1633   1.328       .  A
N1605     Co1623   2.096       .  S
H1606      C1629   1.082       .  S
H1607      C1624   1.082       .  S
N1610      N1622   1.323       .  A
N1610      N1626   1.320       .  A
N1610     Co1619   2.076       .  S
C1611      N1615   1.351       .  A
C1611      C1625   1.452       .  S
C1612      C1631   1.451       .  S
C1612      H1616   1.082       .  S
N1613      C1624   1.345       .  A
C1617      N1633   1.351       .  A
C1617      C1629   1.451       .  S
Co1619    Cl1630   2.451       .  S
N1620      C1631   1.351       .  A
Co1623    Cl1630   2.454       .  S
C1634      N1652   1.347       .  A
C1634      C1671   1.462       .  S
N1635      N1652   1.323       .  A
N1635      N1657   1.320       .  A
N1635     Co1672   2.077       .  S
C1636      N1661   1.336       .  A
C1636      C1674   1.451       .  S
C1636      H1681   1.082       .  S
H1637      C1678   1.082       .  S
C1638      N1662   1.345       .  A
C1638      C1642   1.462       .  S
C1638      H1667   1.082       .  S
Co1639     N1657   2.096       .  S
Co1639     N2261   2.096       .  S
Co1639     N1946   2.096   1_556  S
Co1639    Cl1683   2.453       .  S
N1640      C1678   1.336       .  A
N1640      N1647   1.321       .  A
N1640     Co1641   2.072       .  S
Co1641     N1644   2.076       .  S
Co1641     N2243   2.072       .  S
Co1641     N2230   2.076       .  S
C1642      N1680   1.346       .  A
N1643      N1650   1.321       .  A
N1643      N1673   1.328       .  A
N1643     Co1676   2.096       .  S
N1644      N1662   1.320       .  A
N1644      N1680   1.323       .  A
N1645      C1674   1.351       .  A
N1645      N1655   1.328       .  A
H1646      C1671   1.082       .  S
N1647      N1668   1.328       .  A
N1648      N1666   1.320       .  A
N1648      N1653   1.323       .  A
N1648     Co2223   2.076   1_545  S
C1649      N1653   1.346       .  A
C1649      C1677   1.462       .  S
N1650      C1665   1.335       .  A
N1650     Co1672   2.071       .  S
C1651      N1679   1.345       .  A
C1651      C1654   1.462       .  S
C1651      H1685   1.082       .  S
C1654      N1675   1.347       .  A
N1655      N1661   1.321       .  A
N1655     Co1930   2.096   1_545  S
N1656      C1682   1.335       .  A
N1656      N1658   1.321       .  A
N1656     Co2254   2.071   1_545  S
N1657      C1671   1.344       .  A
N1658      N1686   1.328       .  A
N1658     Co2258   2.097   1_545  S
H1659      C1682   1.082       .  S
H1660      C1677   1.081       .  S
N1661     Co2223   2.072   1_545  S
N1663      N1675   1.323       .  A
N1663      N1679   1.320       .  A
N1663     Co2254   2.078   1_545  S
C1664      N1668   1.351       .  A
C1664      C1678   1.452       .  S
C1665      C1684   1.451       .  S
C1665      H1669   1.082       .  S
N1666      C1677   1.345       .  A
N1666     Co1967   2.097   1_545  S
C1670      N1686   1.352       .  A
C1670      C1682   1.451       .  S
Co1672     N2238   2.071       .  S
Co1672     N2245   2.078       .  S
Co1672    Cl1683   2.451       .  S
N1673      C1684   1.351       .  A
Co1676     N2240   2.097       .  S
Co1676     N1957   2.097   1_556  S
Co1676    Cl1683   2.455       .  S
N1679     Co2221   2.096   1_545  S
C1687      H1693   1.083       .  S
C1687      C1688   1.405       .  A
C1687      C1692   1.400       .  A
C1688      C1689   1.408       .  A
C1689      H1694   1.083       .  S
C1689      C1690   1.399       .  A
C1690      H1695   1.083       .  S
C1690      C1691   1.405       .  A
C1691      C1692   1.408       .  A
C1692      H1696   1.083       .  S
C1697      H1703   1.083       .  S
C1697      C1698   1.409       .  A
C1697      C1702   1.401       .  A
C1698      C1699   1.405       .  A
C1699      H1704   1.083       .  S
C1699      C1700   1.398       .  A
C1700      H1705   1.083       .  S
C1700      C1701   1.408       .  A
C1701      C1702   1.405       .  A
C1702      H1706   1.083       .  S
C1707      H1713   1.083       .  S
C1707      C1708   1.405       .  A
C1707      C1712   1.399       .  A
C1708      C1709   1.408       .  A
C1709      H1714   1.083       .  S
C1709      C1710   1.400       .  A
C1710      H1715   1.083       .  S
C1710      C1711   1.405       .  A
C1711      C1712   1.408       .  A
C1712      H1716   1.083       .  S
C1717      H1723   1.083       .  S
C1717      C1718   1.405       .  A
C1717      C1722   1.399       .  A
C1718      C1719   1.408       .  A
C1719      H1724   1.083       .  S
C1719      C1720   1.400       .  A
C1720      H1725   1.083       .  S
C1720      C1721   1.405       .  A
C1721      C1722   1.408       .  A
C1722      H1726   1.083       .  S
C1727      H1733   1.083       .  S
C1727      C1728   1.405       .  A
C1727      C1732   1.399       .  A
C1728      C1729   1.408       .  A
C1729      H1734   1.083       .  S
C1729      C1730   1.400       .  A
C1730      H1735   1.083       .  S
C1730      C1731   1.405       .  A
C1731      C1732   1.408       .  A
C1732      H1736   1.083       .  S
C1737      H1743   1.083       .  S
C1737      C1738   1.405       .  A
C1737      C1742   1.398       .  A
C1738      C1739   1.409       .  A
C1739      H1744   1.083       .  S
C1739      C1740   1.402       .  A
C1740      H1745   1.083       .  S
C1740      C1741   1.405       .  A
C1741      C1742   1.408       .  A
C1742      H1746   1.083       .  S
C1747      N1748   1.357       .  A
C1747      N1752   1.360       .  A
C1747      C2029   1.487       .  S
N1748      C1749   1.358       .  A
C1749      N1750   1.359       .  A
C1749      C1955   1.464       .  S
N1750      C1751   1.359       .  A
C1751      N1752   1.361       .  A
C1751      C1819   1.468       .  S
C1753      N1754   1.360       .  A
C1753      N1758   1.355       .  A
C1753      C2032   1.487       .  S
N1754      C1755   1.362       .  A
C1755      N1756   1.360       .  A
C1755      C1925   1.467       .  S
N1756      C1757   1.358       .  A
C1757      N1758   1.355       .  A
C1757      C1849   1.463       .  S
C1759      N1760   1.360       .  A
C1759      N1764   1.356       .  A
C1759      C2022   1.487       .  S
N1760      C1761   1.362       .  A
C1761      N1762   1.360       .  A
C1761      C1872   1.467       .  S
N1762      C1763   1.358       .  A
C1763      N1764   1.356       .  A
C1763      C1975   1.462       .  S
C1765      N1766   1.356       .  A
C1765      N1770   1.360       .  A
C1765      C2019   1.488       .  S
N1766      C1767   1.357       .  A
C1767      N1768   1.359       .  A
C1767      C1902   1.462       .  S
N1768      C1769   1.359       .  A
C1769      N1770   1.361       .  A
C1769      C1933   1.467       .  S
C1771      N1772   1.360       .  A
C1771      N1776   1.356       .  A
C1771      C2009   1.488       .  S
N1772      C1773   1.361       .  A
C1773      N1774   1.360       .  A
C1773      C1880   1.467       .  S
N1774      C1775   1.359       .  A
C1775      N1776   1.357       .  A
C1775      C1869   1.463       .  S
C1777      N1778   1.360       .  A
C1777      N1782   1.356       .  A
C1777      C2012   1.487       .  S
N1778      C1779   1.361       .  A
C1779      N1780   1.360       .  A
C1779      C1827   1.466       .  S
N1780      C1781   1.358       .  A
C1781      N1782   1.356       .  A
C1781      C1922   1.462       .  S
C1783      N1784   1.360       .  A
C1783      N1788   1.356       .  A
C1783      C2002   1.487       .  S
N1784      C1785   1.362       .  A
C1785      N1786   1.360       .  A
C1785      C1945   1.467       .  S
N1786      C1787   1.358       .  A
C1787      N1788   1.356       .  A
C1787      C1908   1.462       .  S
C1789      N1790   1.356       .  A
C1789      N1794   1.360       .  A
C1789      C1999   1.488       .  S
N1790      C1791   1.357       .  A
C1791      N1792   1.358       .  A
C1791      C1965   1.462       .  S
N1792      C1793   1.359       .  A
C1793      N1794   1.361       .  A
C1793      C1887   1.466       .  S
C1795      N1796   1.360       .  A
C1795      N1800   1.356       .  A
C1795      C1989   1.488       .  S
N1796      C1797   1.361       .  A
C1797      N1798   1.360       .  A
C1797      C1839   1.468       .  S
N1798      C1799   1.359       .  A
C1799      N1800   1.357       .  A
C1799      C1912   1.463       .  S
C1801      N1802   1.360       .  A
C1801      N1806   1.356       .  A
C1801      C1992   1.487       .  S
N1802      C1803   1.362       .  A
C1803      N1804   1.360       .  A
C1803      C1892   1.466       .  S
N1804      C1805   1.358       .  A
C1805      N1806   1.356       .  A
C1805      C1859   1.462       .  S
C1807      N1808   1.356       .  A
C1807      N1812   1.360       .  A
C1807      C1979   1.488       .  S
N1808      C1809   1.357       .  A
C1809      N1810   1.358       .  A
C1809      C1961   1.462       .  S
N1810      C1811   1.360       .  A
C1811      N1812   1.361       .  A
C1811      C1834   1.466       .  S
C1813      N1814   1.360       .  A
C1813      N1818   1.356       .  A
C1813      C1982   1.488       .  S
N1814      C1815   1.361       .  A
C1815      N1816   1.360       .  A
C1815      C1940   1.467       .  S
N1816      C1817   1.358       .  A
C1817      N1818   1.357       .  A
C1817      C1855   1.463       .  S
C1819      N1837   1.346       .  A
C1819      C1856   1.463       .  S
N1820      N1837   1.323       .  A
N1820      N1842   1.320       .  A
N1820     Co1857   2.076       .  S
C1821      N1846   1.335       .  A
C1821      C1859   1.451       .  S
C1821      H1866   1.082       .  S
H1822      C1863   1.082       .  S
C1823      N1847   1.344       .  A
C1823      C1827   1.461       .  S
C1823      H1852   1.082       .  S
Co1824     N2133   2.099       .  S
Co1824     N1832   2.097       .  S
Co1824     N2155   2.099       .  S
Co1824     N1840   2.098       .  S
Co1824    Cl1868   2.454       .  S
N1825      C1863   1.335       .  A
N1825      N1832   1.321       .  A
N1825     Co1826   2.071       .  S
Co1826     N1829   2.078       .  S
Co1826     N1846   2.071       .  S
Co1826     N1833   2.077       .  S
Co1826    Cl1868   2.452       .  S
C1827      N1865   1.347       .  A
N1828      N1835   1.321       .  A
N1828      N1858   1.328       .  A
N1828     Co2152   2.095   1_554  S
N1829      N1847   1.320       .  A
N1829      N1865   1.323       .  A
N1830      C1859   1.352       .  A
N1830      N1840   1.328       .  A
H1831      C1856   1.081       .  S
N1832      N1853   1.328       .  A
N1833      N1851   1.320       .  A
N1833      N1838   1.323       .  A
C1834      N1838   1.347       .  A
C1834      C1862   1.461       .  S
N1835      C1850   1.336       .  A
N1835     Co1857   2.073       .  S
C1836      N1864   1.346       .  A
C1836      C1839   1.463       .  S
C1836      H1870   1.081       .  S
C1839      N1860   1.346       .  A
N1840      N1846   1.321       .  A
N1841      C1867   1.336       .  A
N1841      N1843   1.321       .  A
N1841     Co1857   2.072       .  S
N1842      C1856   1.346       .  A
N1842     Co2115   2.099   1_554  S
N1843      N1871   1.328       .  A
N1843     Co2152   2.095   1_554  S
H1844      C1867   1.082       .  S
H1845      C1862   1.082       .  S
N1847     Co1861   2.094       .  S
N1848      N1860   1.323       .  A
N1848      N1864   1.320       .  A
N1848     Co1857   2.077       .  S
C1849      N1853   1.351       .  A
C1849      C1863   1.451       .  S
C1850      C1869   1.452       .  S
C1850      H1854   1.082       .  S
N1851      C1862   1.344       .  A
N1851     Co1861   2.094       .  S
C1855      N1871   1.351       .  A
C1855      C1867   1.451       .  S
Co1857    Cl2159   2.452   1_554  S
N1858      C1869   1.351       .  A
Co1861     N2119   2.095       .  S
Co1861     N2134   2.095       .  S
Co1861    Cl1868   2.453       .  S
N1864     Co2115   2.099   1_554  S
Cl1868    Co2148   2.452       .  S
C1872      N1890   1.347       .  A
C1872      C1909   1.461       .  S
N1873      N1895   1.320       .  A
N1873     Co1910   2.078   1_455  S
C1874      N1899   1.336       .  A
C1874      C1912   1.452       .  S
C1874      H1919   1.082       .  S
H1875      C1916   1.082       .  S
C1876      C1880   1.462       .  S
C1876      H1905   1.081       .  S
Co1877     N1895   2.095   1_655  S
Co1877     N2176   2.095   1_655  S
Co1877     N1917   2.094       .  S
Co1877     N2184   2.095       .  S
Co1877    Cl1921   2.453       .  S
N1878      N1885   1.321       .  A
N1878     Co1879   2.072   1_455  S
Co1879     N1882   2.076   1_655  S
Co1879     N1899   2.072       .  S
Co1879     N1886   2.075       .  S
Co1879    Cl2212   2.451   1_554  S
C1880      N1918   1.346       .  A
N1881      N1888   1.321       .  A
N1881     Co1914   2.097   1_455  S
N1882      N1900   1.320       .  A
N1883      C1912   1.351       .  A
N1883      N1893   1.328       .  A
H1884      C1909   1.082       .  S
N1885     Co2168   2.095   1_454  S
N1886      N1904   1.320       .  A
N1886      N1891   1.322       .  A
C1887      N1891   1.346       .  A
C1887      C1915   1.463       .  S
N1888     Co1910   2.071   1_455  S
C1889      N1917   1.344       .  A
C1889      C1892   1.461       .  S
C1889      H1923   1.082       .  S
C1892      N1913   1.346       .  A
N1893      N1899   1.321       .  A
N1893     Co2168   2.095   1_554  S
N1894      C1920   1.335       .  A
N1894      N1896   1.321       .  A
N1894     Co1910   2.071       .  S
N1896      N1924   1.328       .  A
N1896     Co1914   2.096       .  S
H1897      C1920   1.082       .  S
H1898      C1915   1.082       .  S
N1900     Co2205   2.097   1_454  S
N1901      N1913   1.323       .  A
N1901      N1917   1.320       .  A
N1901     Co1910   2.076       .  S
C1902      N1906   1.351       .  A
C1902      C1916   1.452       .  S
C1903      C1922   1.451       .  S
C1903      H1907   1.082       .  S
N1904      C1915   1.345       .  A
N1904     Co2205   2.097   1_554  S
C1908      N1924   1.351       .  A
C1908      C1920   1.451       .  S
Co1910    Cl1921   2.451       .  S
N1911      C1922   1.351       .  A
Co1914     N2191   2.097   1_655  S
Co1914     N2195   2.097       .  S
Co1914    Cl1921   2.454       .  S
Cl1921    Co2170   2.451       .  S
C1925      N1943   1.347       .  A
C1925      C1962   1.462       .  S
N1926      N1943   1.323       .  A
N1926      N1948   1.320       .  A
N1926     Co1963   2.077       .  S
C1927      N1952   1.336       .  A
C1927      C1965   1.451       .  S
C1927      H1972   1.082       .  S
H1928      C1969   1.082       .  S
C1929      N1953   1.345       .  A
C1929      C1933   1.462       .  S
C1929      H1958   1.082       .  S
Co1930     N1948   2.096       .  S
Co1930     N2229   2.096       .  S
Co1930    Cl1974   2.453       .  S
N1931      C1969   1.336       .  A
N1931      N1938   1.321       .  A
N1931     Co1932   2.072       .  S
Co1932     N1935   2.076       .  S
Co1932    Cl2265   2.451   1_554  S
C1933      N1971   1.346       .  A
N1934      N1941   1.321       .  A
N1934      N1964   1.328       .  A
N1934     Co1967   2.096       .  S
N1935      N1953   1.320       .  A
N1935      N1971   1.323       .  A
N1936      C1965   1.351       .  A
N1936      N1946   1.328       .  A
H1937      C1962   1.082       .  S
N1938      N1959   1.328       .  A
N1938     Co2221   2.096   1_554  S
N1939      N1957   1.320       .  A
N1939      N1944   1.323       .  A
C1940      N1944   1.346       .  A
C1940      C1968   1.462       .  S
N1941      C1956   1.335       .  A
N1941     Co1963   2.071       .  S
C1942      N1970   1.345       .  A
C1942      C1945   1.462       .  S
C1942      H1976   1.082       .  S
C1945      N1966   1.347       .  A
N1946      N1952   1.321       .  A
N1947      C1973   1.335       .  A
N1947      N1949   1.321       .  A
N1948      C1962   1.344       .  A
N1949      N1977   1.328       .  A
H1950      C1973   1.082       .  S
H1951      C1968   1.081       .  S
N1953     Co2258   2.097   1_554  S
N1954      N1966   1.323       .  A
N1954      N1970   1.320       .  A
C1955      N1959   1.351       .  A
C1955      C1969   1.452       .  S
C1956      C1975   1.451       .  S
C1956      H1960   1.082       .  S
N1957      C1968   1.345       .  A
C1961      N1977   1.352       .  A
C1961      C1973   1.451       .  S
Co1963    Cl1974   2.451       .  S
N1964      C1975   1.351       .  A
Co1967     N2244   2.097       .  S
Co1967    Cl1974   2.455       .  S
Cl1974    Co2223   2.451       .  S
C1978      H1984   1.083       .  S
C1978      C1979   1.405       .  A
C1978      C1983   1.400       .  A
C1979      C1980   1.408       .  A
C1980      H1985   1.083       .  S
C1980      C1981   1.399       .  A
C1981      H1986   1.083       .  S
C1981      C1982   1.405       .  A
C1982      C1983   1.408       .  A
C1983      H1987   1.083       .  S
C1988      H1994   1.083       .  S
C1988      C1989   1.409       .  A
C1988      C1993   1.401       .  A
C1989      C1990   1.405       .  A
C1990      H1995   1.083       .  S
C1990      C1991   1.398       .  A
C1991      H1996   1.083       .  S
C1991      C1992   1.408       .  A
C1992      C1993   1.405       .  A
C1993      H1997   1.083       .  S
C1998      H2004   1.083       .  S
C1998      C1999   1.405       .  A
C1998      C2003   1.399       .  A
C1999      C2000   1.408       .  A
C2000      H2005   1.083       .  S
C2000      C2001   1.400       .  A
C2001      H2006   1.083       .  S
C2001      C2002   1.405       .  A
C2002      C2003   1.408       .  A
C2003      H2007   1.083       .  S
C2008      H2014   1.083       .  S
C2008      C2009   1.405       .  A
C2008      C2013   1.399       .  A
C2009      C2010   1.408       .  A
C2010      H2015   1.083       .  S
C2010      C2011   1.400       .  A
C2011      H2016   1.083       .  S
C2011      C2012   1.405       .  A
C2012      C2013   1.408       .  A
C2013      H2017   1.083       .  S
C2018      H2024   1.083       .  S
C2018      C2019   1.405       .  A
C2018      C2023   1.399       .  A
C2019      C2020   1.408       .  A
C2020      H2025   1.083       .  S
C2020      C2021   1.400       .  A
C2021      H2026   1.083       .  S
C2021      C2022   1.405       .  A
C2022      C2023   1.408       .  A
C2023      H2027   1.083       .  S
C2028      H2034   1.083       .  S
C2028      C2029   1.405       .  A
C2028      C2033   1.398       .  A
C2029      C2030   1.409       .  A
C2030      H2035   1.083       .  S
C2030      C2031   1.402       .  A
C2031      H2036   1.083       .  S
C2031      C2032   1.405       .  A
C2032      C2033   1.408       .  A
C2033      H2037   1.083       .  S
C2038      N2039   1.357       .  A
C2038      N2043   1.360       .  A
C2038      C2320   1.487       .  S
N2039      C2040   1.358       .  A
C2040      N2041   1.359       .  A
C2040      C2246   1.464       .  S
N2041      C2042   1.359       .  A
C2042      N2043   1.361       .  A
C2042      C2110   1.468       .  S
C2044      N2045   1.360       .  A
C2044      N2049   1.355       .  A
C2044      C2323   1.487       .  S
N2045      C2046   1.362       .  A
C2046      N2047   1.360       .  A
C2046      C2216   1.467       .  S
N2047      C2048   1.358       .  A
C2048      N2049   1.355       .  A
C2048      C2140   1.463       .  S
C2050      N2051   1.360       .  A
C2050      N2055   1.356       .  A
C2050      C2313   1.487       .  S
N2051      C2052   1.362       .  A
C2052      N2053   1.360       .  A
C2052      C2163   1.467       .  S
N2053      C2054   1.358       .  A
C2054      N2055   1.356       .  A
C2054      C2266   1.462       .  S
C2056      N2057   1.356       .  A
C2056      N2061   1.360       .  A
C2056      C2310   1.488       .  S
N2057      C2058   1.357       .  A
C2058      N2059   1.359       .  A
C2058      C2193   1.462       .  S
N2059      C2060   1.359       .  A
C2060      N2061   1.361       .  A
C2060      C2224   1.467       .  S
C2062      N2063   1.360       .  A
C2062      N2067   1.356       .  A
C2062      C2300   1.488       .  S
N2063      C2064   1.361       .  A
C2064      N2065   1.360       .  A
C2064      C2171   1.467       .  S
N2065      C2066   1.359       .  A
C2066      N2067   1.357       .  A
C2066      C2160   1.463       .  S
C2068      N2069   1.360       .  A
C2068      N2073   1.356       .  A
C2068      C2303   1.487       .  S
N2069      C2070   1.361       .  A
C2070      N2071   1.360       .  A
C2070      C2118   1.466       .  S
N2071      C2072   1.358       .  A
C2072      N2073   1.356       .  A
C2072      C2213   1.462       .  S
C2074      N2075   1.360       .  A
C2074      N2079   1.356       .  A
C2074      C2293   1.487       .  S
N2075      C2076   1.362       .  A
C2076      N2077   1.360       .  A
C2076      C2236   1.467       .  S
N2077      C2078   1.358       .  A
C2078      N2079   1.356       .  A
C2078      C2199   1.462       .  S
C2080      N2081   1.356       .  A
C2080      N2085   1.360       .  A
C2080      C2290   1.488       .  S
N2081      C2082   1.357       .  A
C2082      N2083   1.358       .  A
C2082      C2256   1.462       .  S
N2083      C2084   1.359       .  A
C2084      N2085   1.361       .  A
C2084      C2178   1.466       .  S
C2086      N2087   1.360       .  A
C2086      N2091   1.356       .  A
C2086      C2280   1.488       .  S
N2087      C2088   1.361       .  A
C2088      N2089   1.360       .  A
C2088      C2130   1.468       .  S
N2089      C2090   1.359       .  A
C2090      N2091   1.357       .  A
C2090      C2203   1.463       .  S
C2092      N2093   1.360       .  A
C2092      N2097   1.356       .  A
C2092      C2283   1.487       .  S
N2093      C2094   1.362       .  A
C2094      N2095   1.360       .  A
C2094      C2183   1.466       .  S
N2095      C2096   1.358       .  A
C2096      N2097   1.356       .  A
C2096      C2150   1.462       .  S
C2098      N2099   1.356       .  A
C2098      N2103   1.360       .  A
C2098      C2270   1.488       .  S
N2099      C2100   1.357       .  A
C2100      N2101   1.358       .  A
C2100      C2252   1.462       .  S
N2101      C2102   1.360       .  A
C2102      N2103   1.361       .  A
C2102      C2125   1.466       .  S
C2104      N2105   1.360       .  A
C2104      N2109   1.356       .  A
C2104      C2273   1.488       .  S
N2105      C2106   1.361       .  A
C2106      N2107   1.360       .  A
C2106      C2231   1.467       .  S
N2107      C2108   1.358       .  A
C2108      N2109   1.357       .  A
C2108      C2146   1.463       .  S
C2110      N2128   1.346       .  A
C2110      C2147   1.463       .  S
N2111      N2128   1.323       .  A
N2111      N2133   1.320       .  A
N2111     Co2148   2.076       .  S
C2112      N2137   1.335       .  A
C2112      C2150   1.451       .  S
C2112      H2157   1.082       .  S
H2113      C2154   1.082       .  S
C2114      N2138   1.344       .  A
C2114      C2118   1.461       .  S
C2114      H2143   1.082       .  S
Co2115     N2123   2.097       .  S
Co2115     N2131   2.098       .  S
Co2115    Cl2159   2.454       .  S
N2116      C2154   1.335       .  A
N2116      N2123   1.321       .  A
N2116     Co2117   2.071       .  S
Co2117     N2120   2.078       .  S
Co2117     N2137   2.071       .  S
Co2117     N2124   2.077       .  S
Co2117    Cl2159   2.452       .  S
C2118      N2156   1.347       .  A
N2119      N2126   1.321       .  A
N2119      N2149   1.328       .  A
N2120      N2138   1.320       .  A
N2120      N2156   1.323       .  A
N2121      C2150   1.352       .  A
N2121      N2131   1.328       .  A
H2122      C2147   1.081       .  S
N2123      N2144   1.328       .  A
N2124      N2142   1.320       .  A
N2124      N2129   1.323       .  A
C2125      N2129   1.347       .  A
C2125      C2153   1.461       .  S
N2126      C2141   1.336       .  A
N2126     Co2148   2.073       .  S
C2127      N2155   1.346       .  A
C2127      C2130   1.463       .  S
C2127      H2161   1.082       .  S
C2130      N2151   1.346       .  A
N2131      N2137   1.321       .  A
N2132      C2158   1.336       .  A
N2132      N2134   1.321       .  A
N2132     Co2148   2.072       .  S
N2133      C2147   1.346       .  A
N2134      N2162   1.328       .  A
H2135      C2158   1.082       .  S
H2136      C2153   1.082       .  S
N2138     Co2152   2.094       .  S
N2139      N2151   1.323       .  A
N2139      N2155   1.320       .  A
N2139     Co2148   2.077       .  S
C2140      N2144   1.351       .  A
C2140      C2154   1.451       .  S
C2141      C2160   1.452       .  S
C2141      H2145   1.082       .  S
N2142      C2153   1.344       .  A
N2142     Co2152   2.094       .  S
C2146      N2162   1.351       .  A
C2146      C2158   1.451       .  S
N2149      C2160   1.351       .  A
Co2152    Cl2159   2.453       .  S
C2163      N2181   1.347       .  A
C2163      C2200   1.461       .  S
N2164      N2186   1.320       .  A
N2164     Co2201   2.078   1_455  S
C2165      N2190   1.336       .  A
C2165      C2203   1.452       .  S
C2165      H2210   1.082       .  S
H2166      C2207   1.082       .  S
C2167      C2171   1.462       .  S
C2167      H2196   1.081       .  S
Co2168     N2186   2.095   1_655  S
Co2168     N2208   2.094       .  S
Co2168    Cl2212   2.453       .  S
N2169      N2176   1.321       .  A
N2169     Co2170   2.072   1_455  S
Co2170     N2173   2.076   1_655  S
Co2170     N2190   2.072       .  S
Co2170     N2177   2.075       .  S
C2171      N2209   1.346       .  A
N2172      N2179   1.321       .  A
N2172     Co2205   2.097   1_455  S
N2173      N2191   1.320       .  A
N2174      C2203   1.351       .  A
N2174      N2184   1.328       .  A
H2175      C2200   1.082       .  S
N2177      N2195   1.320       .  A
N2177      N2182   1.322       .  A
C2178      N2182   1.346       .  A
C2178      C2206   1.463       .  S
N2179     Co2201   2.071   1_455  S
C2180      N2208   1.344       .  A
C2180      C2183   1.461       .  S
C2180      H2214   1.082       .  S
C2183      N2204   1.346       .  A
N2184      N2190   1.321       .  A
N2185      C2211   1.335       .  A
N2185      N2187   1.321       .  A
N2185     Co2201   2.071       .  S
N2187      N2215   1.328       .  A
N2187     Co2205   2.096       .  S
H2188      C2211   1.082       .  S
H2189      C2206   1.082       .  S
N2192      N2204   1.323       .  A
N2192      N2208   1.320       .  A
N2192     Co2201   2.076       .  S
C2193      N2197   1.351       .  A
C2193      C2207   1.452       .  S
C2194      C2213   1.451       .  S
C2194      H2198   1.082       .  S
N2195      C2206   1.345       .  A
C2199      N2215   1.351       .  A
C2199      C2211   1.451       .  S
Co2201    Cl2212   2.451       .  S
N2202      C2213   1.351       .  A
Co2205    Cl2212   2.454       .  S
C2216      N2234   1.347       .  A
C2216      C2253   1.462       .  S
N2217      N2234   1.323       .  A
N2217      N2239   1.320       .  A
N2217     Co2254   2.077       .  S
C2218      N2243   1.336       .  A
C2218      C2256   1.451       .  S
C2218      H2263   1.082       .  S
H2219      C2260   1.082       .  S
C2220      N2244   1.345       .  A
C2220      C2224   1.462       .  S
C2220      H2249   1.082       .  S
Co2221     N2239   2.096       .  S
Co2221    Cl2265   2.453       .  S
N2222      C2260   1.336       .  A
N2222      N2229   1.321       .  A
N2222     Co2223   2.072       .  S
Co2223     N2226   2.076       .  S
C2224      N2262   1.346       .  A
N2225      N2232   1.321       .  A
N2225      N2255   1.328       .  A
N2225     Co2258   2.096       .  S
N2226      N2244   1.320       .  A
N2226      N2262   1.323       .  A
N2227      C2256   1.351       .  A
N2227      N2237   1.328       .  A
H2228      C2253   1.082       .  S
N2229      N2250   1.328       .  A
N2230      N2248   1.320       .  A
N2230      N2235   1.323       .  A
C2231      N2235   1.346       .  A
C2231      C2259   1.462       .  S
N2232      C2247   1.335       .  A
N2232     Co2254   2.071       .  S
C2233      N2261   1.345       .  A
C2233      C2236   1.462       .  S
C2233      H2267   1.082       .  S
C2236      N2257   1.347       .  A
N2237      N2243   1.321       .  A
N2238      C2264   1.335       .  A
N2238      N2240   1.321       .  A
N2239      C2253   1.344       .  A
N2240      N2268   1.328       .  A
H2241      C2264   1.082       .  S
H2242      C2259   1.081       .  S
N2245      N2257   1.323       .  A
N2245      N2261   1.320       .  A
C2246      N2250   1.351       .  A
C2246      C2260   1.452       .  S
C2247      C2266   1.451       .  S
C2247      H2251   1.082       .  S
N2248      C2259   1.345       .  A
C2252      N2268   1.352       .  A
C2252      C2264   1.451       .  S
Co2254    Cl2265   2.451       .  S
N2255      C2266   1.351       .  A
Co2258    Cl2265   2.455       .  S
C2269      H2275   1.083       .  S
C2269      C2270   1.405       .  A
C2269      C2274   1.400       .  A
C2270      C2271   1.408       .  A
C2271      H2276   1.083       .  S
C2271      C2272   1.399       .  A
C2272      H2277   1.083       .  S
C2272      C2273   1.405       .  A
C2273      C2274   1.408       .  A
C2274      H2278   1.083       .  S
C2279      H2285   1.083       .  S
C2279      C2280   1.409       .  A
C2279      C2284   1.401       .  A
C2280      C2281   1.405       .  A
C2281      H2286   1.083       .  S
C2281      C2282   1.398       .  A
C2282      H2287   1.083       .  S
C2282      C2283   1.408       .  A
C2283      C2284   1.405       .  A
C2284      H2288   1.083       .  S
C2289      H2295   1.083       .  S
C2289      C2290   1.405       .  A
C2289      C2294   1.399       .  A
C2290      C2291   1.408       .  A
C2291      H2296   1.083       .  S
C2291      C2292   1.400       .  A
C2292      H2297   1.083       .  S
C2292      C2293   1.405       .  A
C2293      C2294   1.408       .  A
C2294      H2298   1.083       .  S
C2299      H2305   1.083       .  S
C2299      C2300   1.405       .  A
C2299      C2304   1.399       .  A
C2300      C2301   1.408       .  A
C2301      H2306   1.083       .  S
C2301      C2302   1.400       .  A
C2302      H2307   1.083       .  S
C2302      C2303   1.405       .  A
C2303      C2304   1.408       .  A
C2304      H2308   1.083       .  S
C2309      H2315   1.083       .  S
C2309      C2310   1.405       .  A
C2309      C2314   1.399       .  A
C2310      C2311   1.408       .  A
C2311      H2316   1.083       .  S
C2311      C2312   1.400       .  A
C2312      H2317   1.083       .  S
C2312      C2313   1.405       .  A
C2313      C2314   1.408       .  A
C2314      H2318   1.083       .  S
C2319      H2325   1.083       .  S
C2319      C2320   1.405       .  A
C2319      C2324   1.398       .  A
C2320      C2321   1.409       .  A
C2321      H2326   1.083       .  S
C2321      C2322   1.402       .  A
C2322      H2327   1.083       .  S
C2322      C2323   1.405       .  A
C2323      C2324   1.408       .  A
C2324      H2328   1.083       .  S
