geometry optimzed in LAMMPS
_audit_creation_date              2020-12-01 
_audit_creation_method            'lammps2cif' 
_symmetry_space_group_name_H-M    'P1' 
_symmetry_Int_Tables_number       1 
_symmetry_cell_setting            triclinic 
loop_ 
_symmetry_equiv_pos_as_xyz 
  x,y,z 
_cell_length_a                    34.85448213 
_cell_length_b                    34.27969317721752 
_cell_length_c                    31.726326463413432 
_cell_angle_alpha                 90.24544967105531 
_cell_angle_beta                  90.0816945962074 
_cell_angle_gamma                 91.55343424754909 
loop_ 
_atom_site_label 
_atom_site_type_symbol 
_atom_site_fract_x 
_atom_site_fract_y 
_atom_site_fract_z 
_atom_site_charge 
O1          O  0.46775629  0.42147569  0.47358557    -0.81800
O2          O  0.04239160  0.08314997  0.48761215    -0.81800
O3          O  0.45470207  0.04406825  0.43480960    -0.81800
O4          O  0.09728653  0.47628099  0.47179086    -0.81700
O5          O  0.45871170  0.08829166  0.48447430    -0.81900
O6          O  0.04376583  0.44396680  0.45449420    -0.82800
O7          O  0.05325488  0.03369590  0.44459967    -0.81800
O8          O  0.46123504  0.46909101  0.42995626    -0.81800
C9          C  0.45641217  0.43361397  0.43830643     1.07900
C10         C  0.05756005  0.06965118  0.45408219     1.07800
C11         C  0.44842321  0.07809359  0.44742731     1.08000
C12         C  0.08054352  0.44979388  0.45025258     1.07800
O13         O  0.02670538  0.40385631  0.03055418    -0.81800
O14         O  0.45586156  0.04654758  0.06168458    -0.81800
O15         O  0.42280109  0.46024583  0.01164119    -0.81800
O16         O  0.07925243  0.03706589  0.02598516    -0.81800
O17         O  0.03190125  0.04476364  0.06899301    -0.81800
O18         O  0.47110912  0.45001349  0.05529185    -0.81800
O19         O  0.05782729  0.45972186  0.04425622    -0.81700
O20         O  0.41347602  0.04012091  0.01099480    -0.81800
Co21       Co  0.00691786  0.45153050  0.50660883     1.51500
Co22       Co  0.49812930  0.06240063  0.02465805     1.51700
Co23       Co  0.44123269  0.50524104  0.47242170     1.51600
Co24       Co  0.04932610  0.99857428  0.99049176     1.51500
O25         O  0.49390682  0.50931787  0.49938209    -1.43700
C26         C  0.05315590  0.42249667  0.05012688     1.07900
C27         C  0.42216518  0.05068280  0.04843693     1.07900
C28         C  0.43591208  0.44551568  0.04550727     1.07900
C29         C  0.06692165  0.04932662  0.06084354     1.07900
C30         C  0.16507663  0.17067275  0.35848652     0.84900
C31         C  0.20894614  0.16344711  0.36328400    -0.55400
C32         C  0.23182015  0.18433012  0.33558031     0.07800
C33         C  0.20770926  0.20988834  0.30658846     0.18700
C34         C  0.16188885  0.21585185  0.36264072    -0.56100
C35         C  0.18439014  0.23673642  0.33510019     0.07900
C36         C  0.15637990  0.16213277  0.31147206    -0.55600
C37         C  0.17909460  0.18235930  0.28379346     0.08500
H38         H  0.22037226  0.14339746  0.38617004     0.13000
H39         H  0.22439938  0.22583698  0.28515068    -0.01300
H40         H  0.14369584  0.23047455  0.38480257     0.13300
H41         H  0.13413510  0.14136697  0.30148601     0.13100
C42         C  0.17416754  0.35023389  0.34467899     0.84900
C43         C  0.16701426  0.30665934  0.35620827    -0.55400
C44         C  0.18650572  0.28096696  0.33162163     0.07800
C45         C  0.21139067  0.30235504  0.29852615     0.18700
C46         C  0.21859403  0.35598541  0.34723943    -0.56100
C47         C  0.23842952  0.33073420  0.32274633     0.07900
C48         C  0.16466861  0.35271496  0.29712387    -0.55600
C49         C  0.18427028  0.32736513  0.27237287     0.08500
H50         H  0.14795151  0.29743554  0.38146621     0.13000
H51         H  0.22644283  0.28290738  0.27965632    -0.01300
H52         H  0.23352354  0.37710316  0.36701537     0.13300
H53         H  0.14410124  0.37287445  0.28464704     0.13100
C54         C  0.15871064  0.33422113  0.15269040     0.84900
C55         C  0.20184912  0.34033932  0.14125961    -0.55400
C56         C  0.22637347  0.31965770  0.16592403     0.07800
C57         C  0.20445027  0.29506453  0.19888121     0.18700
C58         C  0.15215823  0.28933047  0.14957149    -0.56100
C59         C  0.17602546  0.26842963  0.17428479     0.07900
C60         C  0.15624720  0.34399987  0.20017829    -0.55600
C61         C  0.18049050  0.32342566  0.22496914     0.08500
H62         H  0.21170547  0.35889051  0.11568768     0.13000
H63         H  0.22301457  0.27917964  0.21780618    -0.01300
H64         H  0.13128925  0.27528838  0.12880740     0.13300
H65         H  0.13688674  0.36545541  0.21259040     0.13100
C66         C  0.15731291  0.15560340  0.16614492     0.84900
C67         C  0.15145497  0.19916683  0.15584361    -0.55400
C68         C  0.17559230  0.22443176  0.17735725     0.07800
C69         C  0.20296377  0.20280307  0.20646746     0.18700
C70         C  0.20022954  0.14887029  0.15779454    -0.56100
C71         C  0.22458813  0.17409203  0.17832196     0.07900
C72         C  0.15344822  0.15308698  0.21481040    -0.55600
C73         C  0.17741643  0.17829594  0.23633212     0.08500
H74         H  0.12999025  0.20861819  0.13360791     0.13000
H75         H  0.22175703  0.22185187  0.22303473    -0.01300
H76         H  0.21006145  0.12625077  0.13673756     0.13300
H77         H  0.13429033  0.13306920  0.23111835     0.13100
C78         C  0.34292329  0.16768057  0.34456486     0.84900
C79         C  0.35086039  0.21226428  0.34726940    -0.55400
C80         C  0.32700056  0.23387438  0.32303567     0.07800
C81         C  0.29783252  0.20808163  0.29864277     0.18700
C82         C  0.29973312  0.16197379  0.35583610    -0.56100
C83         C  0.27545329  0.18338769  0.33160521     0.07900
C84         C  0.34554646  0.15904842  0.29656668    -0.55600
C85         C  0.32161239  0.18010354  0.27212672     0.08500
H86         H  0.37392596  0.22516003  0.36606132     0.13000
H87         H  0.28006352  0.22468984  0.27945520    -0.01300
H88         H  0.28968621  0.14283093  0.38086828     0.13300
H89         H  0.36630493  0.14004564  0.28268940     0.13100
C90         C  0.33191152  0.15579568  0.15203631     0.84900
C91         C  0.28787713  0.14957345  0.14920840    -0.55400
C92         C  0.26759468  0.17475927  0.17356304     0.07800
C93         C  0.29393465  0.20351912  0.19783075     0.18700
C94         C  0.33930933  0.19955254  0.14073565    -0.56100
C95         C  0.31914245  0.22521620  0.16496421     0.07900
C96         C  0.33995187  0.15301644  0.20015379    -0.55600
C97         C  0.32023461  0.17841929  0.22445118     0.08500
H98         H  0.27438846  0.12655918  0.13040824     0.13000
H99         H  0.27826010  0.22221851  0.21696620    -0.01300
H100        H  0.35862254  0.20894702  0.11575554     0.13300
H101        H  0.35738779  0.13104982  0.21430151     0.13100
C102        C  0.33530390  0.33714709  0.13873901     0.84900
C103        C  0.34106750  0.29231828  0.13366951    -0.55400
C104        C  0.31978801  0.26969908  0.16130896     0.07800
C105        C  0.29545082  0.29513037  0.19056125     0.18700
C106        C  0.29107565  0.34185968  0.13471484    -0.56100
C107        C  0.26984930  0.31982203  0.16225428     0.07900
C108        C  0.34402377  0.34575421  0.18567870    -0.55600
C109        C  0.32343041  0.32340575  0.21334316     0.08500
H110        H  0.36037687  0.28008267  0.11064220     0.13000
H111        H  0.27918673  0.27877877  0.21203170    -0.01300
H112        H  0.27719267  0.36073854  0.11269007     0.13300
H113        H  0.36507054  0.36779034  0.19563710     0.13100
C114        C  0.35016153  0.34549429  0.33090506     0.84900
C115        C  0.30749475  0.35348895  0.34081594    -0.55400
C116        C  0.28175813  0.32970562  0.31949189     0.07800
C117        C  0.30207122  0.30073078  0.29063525     0.18700
C118        C  0.35470810  0.30161326  0.33966658    -0.56100
C119        C  0.32920288  0.27770260  0.31885223     0.07900
C120        C  0.35292799  0.34902997  0.28221399    -0.55600
C121        C  0.32735615  0.32540027  0.26076066     0.08500
H122        H  0.29897643  0.37590581  0.36285194     0.13000
H123        H  0.28270900  0.28227723  0.27410367    -0.01300
H124        H  0.37624231  0.29088940  0.36108921     0.13300
H125        H  0.37275734  0.36828157  0.26583789     0.13100
C126        C  0.11165944  0.07977086  0.40205235    -0.15000
C127        C  0.08414026  0.09547722  0.42918287     0.07200
C128        C  0.08481139  0.13607730  0.43557821    -0.15000
C129        C  0.11143320  0.16047562  0.41462674    -0.15000
C130        C  0.13866458  0.14504982  0.38658107     0.07200
C131        C  0.13865195  0.10412790  0.38143496    -0.15000
H132        H  0.11270557  0.04853067  0.39716363     0.11200
H133        H  0.06452825  0.14916805  0.45686628     0.11200
H134        H  0.10970187  0.19128501  0.42066495     0.11200
H135        H  0.15907368  0.09100730  0.36033590     0.11200
C136        C  0.11470617  0.41782260  0.09033909    -0.15000
C137        C  0.07853951  0.40180334  0.07929001     0.07200
C138        C  0.06779043  0.36472410  0.09428425    -0.15000
C139        C  0.09318747  0.34341072  0.11849649    -0.15000
C140        C  0.13070304  0.35789816  0.12689807     0.07200
C141        C  0.14040065  0.39621447  0.11413803    -0.15000
H142        H  0.12354171  0.44665664  0.07965765     0.11200
H143        H  0.03966621  0.35210668  0.08723519     0.11200
H144        H  0.08302619  0.31560258  0.13061901     0.11200
H145        H  0.16797896  0.40946657  0.12222032     0.11200
C146        C  0.40743346  0.08291020  0.11637888    -0.15000
C147        C  0.39565072  0.07303294  0.07532297     0.07200
C148        C  0.36246579  0.09004070  0.05915862    -0.15000
C149        C  0.34211196  0.11691253  0.08359334    -0.15000
C150        C  0.35425922  0.12703782  0.12484066     0.07200
C151        C  0.38782500  0.11001293  0.14016490    -0.15000
H152        H  0.43329819  0.07113540  0.12967585     0.11200
H153        H  0.35315290  0.08381173  0.02719483     0.11200
H154        H  0.31711298  0.13012902  0.07002739     0.11200
H155        H  0.40053048  0.11837923  0.16997082     0.11200
C156        C  0.11995685  0.09804669  0.07100159    -0.15000
C157        C  0.09107346  0.07401220  0.08846475     0.07200
C158        C  0.08209359  0.07774265  0.13128767    -0.15000
C159        C  0.10250673  0.10431881  0.15673288    -0.15000
C160        C  0.13216125  0.12809469  0.13963601     0.07200
C161        C  0.13967878  0.12532873  0.09611293    -0.15000
H162        H  0.12637728  0.09669897  0.03762607     0.11200
H163        H  0.05900467  0.06025928  0.14502706     0.11200
H164        H  0.09407224  0.10621436  0.18930349     0.11200
H165        H  0.16152832  0.14391291  0.08164774     0.11200
C166        C  0.43367231  0.41420489  0.36669899    -0.15000
C167        C  0.43218144  0.40915933  0.41045120     0.07200
C168        C  0.40357713  0.38473595  0.42782166    -0.15000
C169        C  0.37675185  0.36567038  0.40175947    -0.15000
C170        C  0.37835637  0.36980178  0.35762000     0.07200
C171        C  0.40736437  0.39446258  0.34044225    -0.15000
H172        H  0.45515674  0.43363802  0.35284445     0.11200
H173        H  0.40114462  0.38146560  0.46167864     0.11200
H174        H  0.35478225  0.34713473  0.41608179     0.11200
H175        H  0.41035701  0.39908166  0.30706470     0.11200
C176        C  0.40721015  0.13678291  0.43699773    -0.15000
C177        C  0.42386343  0.10290261  0.42099442     0.07200
C178        C  0.41245956  0.08933978  0.38095877    -0.15000
C179        C  0.38554436  0.10905690  0.35730714    -0.15000
C180        C  0.36997871  0.14406812  0.37204149     0.07200
C181        C  0.38033621  0.15692849  0.41293746    -0.15000
H182        H  0.41425918  0.14719978  0.46841107     0.11200
H183        H  0.42349736  0.06253541  0.36816670     0.11200
H184        H  0.37654853  0.09575303  0.32791254     0.11200
H185        H  0.36780257  0.18275518  0.42626757     0.11200
C186        C  0.14297945  0.43413703  0.41708946    -0.15000
C187        C  0.10337428  0.42637186  0.42071170     0.07200
C188        C  0.08688661  0.39501108  0.39792940    -0.15000
C189        C  0.10991201  0.37124448  0.37304555    -0.15000
C190        C  0.14998533  0.37786881  0.37084683     0.07200
C191        C  0.16592217  0.41044118  0.39248734    -0.15000
H192        H  0.15657175  0.45842551  0.43381905     0.11200
H193        H  0.05638311  0.38840921  0.39992242     0.11200
H194        H  0.09649795  0.34704612  0.35601565     0.11200
H195        H  0.19591738  0.41854477  0.39078474     0.11200
C196        C  0.34631122  0.39211000  0.08396958    -0.15000
C197        C  0.36102192  0.36345926  0.11097142     0.07200
C198        C  0.40122034  0.36249368  0.11602987    -0.15000
C199        C  0.42559618  0.39002472  0.09628670    -0.15000
C200        C  0.41047307  0.41887476  0.07021287     0.07200
C201        C  0.37065524  0.41924001  0.06400534    -0.15000
H202        H  0.31612754  0.39475140  0.07801869     0.11200
H203        H  0.41370397  0.34099835  0.13646497     0.11200
H204        H  0.45630325  0.38830152  0.10087367     0.11200
H205        H  0.35814221  0.44067984  0.04351136     0.11200
O206        O  0.47089923  0.41992749  0.97282140    -0.81800
O207        O  0.03898962  0.08533998  0.98755352    -0.81800
O208        O  0.45788927  0.04535910  0.93367404    -0.81800
O209        O  0.09596410  0.47663809  0.97296061    -0.81700
O210        O  0.46266672  0.08945206  0.98354513    -0.81900
O211        O  0.04269114  0.44270464  0.95847619    -0.82800
O212        O  0.04913138  0.03632613  0.94370322    -0.81800
O213        O  0.46387046  0.46830024  0.93068144    -0.81800
C214        C  0.45865552  0.43277707  0.93828466     1.07900
C215        C  0.05397307  0.07204003  0.95378901     1.07800
C216        C  0.45185976  0.07934024  0.94659744     1.08000
C217        C  0.07917389  0.44924275  0.95275065     1.07800
O218        O  0.02755720  0.40426700  0.52591165    -0.81800
O219        O  0.45392964  0.04646258  0.56352002    -0.81800
O220        O  0.41968371  0.46270880  0.51084781    -0.81800
O221        O  0.08231618  0.03417556  0.52702004    -0.81800
O222        O  0.03504188  0.04323093  0.56961861    -0.81800
O223        O  0.46732256  0.45327579  0.55554457    -0.81800
O224        O  0.05816802  0.45949952  0.54246893    -0.81700
O225        O  0.41139841  0.03811760  0.51298595    -0.81800
Co226      Co  0.00592952  0.45065977  0.01076049     1.51500
Co227      Co  0.49535454  0.06188357  0.52495974     1.51700
Co228      Co  0.44275358  0.50327763  0.97343978     1.51600
Co229      Co  0.05200915  0.99596265  0.49174504     1.51500
O230        O  0.49541093  0.50803570  0.00036831    -1.43700
C231        C  0.05371184  0.42201258  0.54685586     1.07900
C232        C  0.42013480  0.04961934  0.55018579     1.07900
C233        C  0.43227939  0.44818681  0.54512737     1.07900
C234        C  0.07027622  0.04640226  0.56194720     1.07900
C235        C  0.16490885  0.17061273  0.86065743     0.84900
C236        C  0.20879626  0.16359864  0.86598028    -0.55400
C237        C  0.23183118  0.18439678  0.83829609     0.07800
C238        C  0.20779517  0.20960569  0.80881888     0.18700
C239        C  0.16136751  0.21573249  0.86421222    -0.56100
C240        C  0.18387164  0.23650139  0.83670200     0.07900
C241        C  0.15668140  0.16161380  0.81362414    -0.55600
C242        C  0.17963632  0.18164376  0.78601257     0.08500
H243        H  0.22011378  0.14378924  0.88918121     0.13000
H244        H  0.22457160  0.22553992  0.78741431    -0.01300
H245        H  0.14257774  0.23046918  0.88562242     0.13300
H246        H  0.13462418  0.14066904  0.80357436     0.13100
C247        C  0.17168295  0.34984190  0.84491033     0.84900
C248        C  0.16489878  0.30627496  0.85663592    -0.55400
C249        C  0.18500182  0.28065561  0.83248908     0.07800
C250        C  0.20978315  0.30205894  0.79937075     0.18700
C251        C  0.21603434  0.35599032  0.84771331    -0.56100
C252        C  0.23630875  0.33086384  0.82376428     0.07900
C253        C  0.16240899  0.35184667  0.79712713    -0.55600
C254        C  0.18241030  0.32644605  0.77265997     0.08500
H255        H  0.14581588  0.29704957  0.88187183     0.13000
H256        H  0.22521107  0.28260246  0.78083280    -0.01300
H257        H  0.23086359  0.37727116  0.86726928     0.13300
H258        H  0.14163188  0.37159626  0.78430075     0.13100
C259        C  0.15731012  0.33103091  0.65207078     0.84900
C260        C  0.20051411  0.33822672  0.64134759    -0.55400
C261        C  0.22536807  0.31848445  0.66665458     0.07800
C262        C  0.20364777  0.29362481  0.69959663     0.18700
C263        C  0.15200414  0.28578190  0.64977761    -0.56100
C264        C  0.17625485  0.26583145  0.67500506     0.07900
C265        C  0.15418681  0.34125153  0.69960194    -0.55600
C266        C  0.17875875  0.32165566  0.72509708     0.08500
H267        H  0.21011397  0.35721715  0.61600067     0.13000
H268        H  0.22236642  0.27842343  0.71897638    -0.01300
H269        H  0.13206540  0.27036521  0.62920762     0.13300
H270        H  0.13426510  0.36239802  0.71153463     0.13100
C271        C  0.16063501  0.15198158  0.66869273     0.84900
C272        C  0.15401077  0.19527288  0.65709673    -0.55400
C273        C  0.17709252  0.22168980  0.67860086     0.07800
C274        C  0.20445120  0.20126505  0.70879571     0.18700
C275        C  0.20388698  0.14615578  0.66161364    -0.56100
C276        C  0.22729922  0.17247782  0.68191353     0.07900
C277        C  0.15580844  0.15056468  0.71726205    -0.55600
C278        C  0.17882097  0.17677526  0.73865521     0.08500
H279        H  0.13270077  0.20369671  0.63417591     0.13000
H280        H  0.22257696  0.22113126  0.72525276    -0.01300
H281        H  0.21463656  0.12329412  0.64146326     0.13300
H282        H  0.13668656  0.13057119  0.73363986     0.13100
C283        C  0.34317758  0.16998802  0.84956785     0.84900
C284        C  0.34974728  0.21477692  0.85239279    -0.55400
C285        C  0.32598649  0.23554853  0.82724475     0.07800
C286        C  0.29810368  0.20899625  0.80228443     0.18700
C287        C  0.29987222  0.16289347  0.85951708    -0.56100
C288        C  0.27557787  0.18380848  0.83477800     0.07900
C289        C  0.34733821  0.16146392  0.80172096    -0.55600
C290        C  0.32349240  0.18189711  0.77647383     0.08500
H291        H  0.37237079  0.22860445  0.87095791     0.13000
H292        H  0.28032170  0.22513155  0.78269060    -0.01300
H293        H  0.28977375  0.14354037  0.88434071     0.13300
H294        H  0.36850355  0.14207418  0.78907162     0.13100
C295        C  0.33542643  0.15696733  0.65667788     0.84900
C296        C  0.29160036  0.14954135  0.65388651    -0.55400
C297        C  0.27043887  0.17420742  0.67783196     0.07800
C298        C  0.29581705  0.20400396  0.70172238     0.18700
C299        C  0.34158391  0.20085160  0.64479953    -0.56100
C300        C  0.32053681  0.22617078  0.66862118     0.07900
C301        C  0.34444437  0.15588854  0.70473132    -0.55600
C302        C  0.32293469  0.18007296  0.72875431     0.08500
H303        H  0.27894719  0.12621333  0.63482645     0.13000
H304        H  0.27939068  0.22248456  0.72038630    -0.01300
H305        H  0.36066938  0.21059274  0.61976463     0.13300
H306        H  0.36583260  0.13802064  0.71896350     0.13100
C307        C  0.33462419  0.33827631  0.64146904     0.84900
C308        C  0.34144075  0.29356981  0.63712837    -0.55400
C309        C  0.32010529  0.27065726  0.66444590     0.07800
C310        C  0.29474569  0.29573041  0.69292093     0.18700
C311        C  0.29036531  0.34229196  0.63669341    -0.56100
C312        C  0.26902687  0.31976045  0.66383725     0.07900
C313        C  0.34215883  0.34754731  0.68860670    -0.55600
C314        C  0.32187466  0.32467222  0.71605194     0.08500
H315        H  0.36148808  0.28161505  0.61470872     0.13000
H316        H  0.27856508  0.27905959  0.71426320    -0.01300
H317        H  0.27683734  0.36195459  0.61507557     0.13300
H318        H  0.36217700  0.37036655  0.69898174     0.13100
C319        C  0.34780184  0.34720606  0.83385403     0.84900
C320        C  0.30493426  0.35442508  0.84349514    -0.55400
C321        C  0.27969087  0.33030128  0.82168291     0.07800
C322        C  0.30061349  0.30157608  0.79326315     0.18700
C323        C  0.35300421  0.30349379  0.84265369    -0.56100
C324        C  0.32783161  0.27918589  0.82202911     0.07900
C325        C  0.35084691  0.35054077  0.78513929    -0.55600
C326        C  0.32563231  0.32662061  0.76352930     0.08500
H327        H  0.29597647  0.37671136  0.86545157     0.13000
H328        H  0.28166758  0.28272519  0.77656442    -0.01300
H329        H  0.37468819  0.29314983  0.86410118     0.13300
H330        H  0.37105199  0.36944712  0.76884417     0.13100
C331        C  0.10883449  0.08095725  0.90279760    -0.15000
C332        C  0.08157545  0.09731373  0.92978742     0.07200
C333        C  0.08380839  0.13769409  0.93729421    -0.15000
C334        C  0.11151857  0.16138441  0.91719860    -0.15000
C335        C  0.13814222  0.14543703  0.88875878     0.07200
C336        C  0.13690875  0.10458738  0.88303243    -0.15000
H337        H  0.10880975  0.04974888  0.89731962     0.11200
H338        H  0.06397186  0.15114824  0.95882787     0.11200
H339        H  0.11115139  0.19206902  0.92435092     0.11200
H340        H  0.15702081  0.09103405  0.86189763     0.11200
C341        C  0.11084872  0.41748197  0.59566920    -0.15000
C342        C  0.07867814  0.39982446  0.57579910     0.07200
C343        C  0.07165532  0.35975157  0.58180479    -0.15000
C344        C  0.09635028  0.33763648  0.60620096    -0.15000
C345        C  0.12956457  0.35465630  0.62504682     0.07200
C346        C  0.13577359  0.39523668  0.62015697    -0.15000
H347        H  0.11710525  0.44837437  0.59178916     0.11200
H348        H  0.04690171  0.34521822  0.56746020     0.11200
H349        H  0.08821221  0.30740295  0.61046752     0.11200
H350        H  0.16028407  0.40972086  0.63501990     0.11200
C351        C  0.39568740  0.06974620  0.62029447    -0.15000
C352        C  0.39348472  0.07236791  0.57635079     0.07200
C353        C  0.37131165  0.10178381  0.55863484    -0.15000
C354        C  0.35312842  0.12903412  0.58462717    -0.15000
C355        C  0.35666127  0.12758848  0.62892837     0.07200
C356        C  0.37720558  0.09639989  0.64615508    -0.15000
H357        H  0.41251617  0.04729141  0.63477867     0.11200
H358        H  0.36960872  0.10489388  0.52472999     0.11200
H359        H  0.33663844  0.15168699  0.57008754     0.11200
H360        H  0.37924446  0.09148830  0.67953232     0.11200
C361        C  0.12487201  0.09299441  0.57351926    -0.15000
C362        C  0.09545353  0.06929227  0.59043334     0.07200
C363        C  0.08697070  0.07208443  0.63348567    -0.15000
C364        C  0.10749671  0.09840009  0.65930906    -0.15000
C365        C  0.13663641  0.12303848  0.64234302     0.07200
C366        C  0.14460437  0.12005945  0.59894298    -0.15000
H367        H  0.13133434  0.09200862  0.54014053     0.11200
H368        H  0.06389271  0.05442521  0.64699356     0.11200
H369        H  0.09925230  0.09967839  0.69196940     0.11200
H370        H  0.16642949  0.13878063  0.58464151     0.11200
C371        C  0.42970532  0.41832876  0.86816460    -0.15000
C372        C  0.43264403  0.40951687  0.91110178     0.07200
C373        C  0.40637228  0.38279356  0.92901665    -0.15000
C374        C  0.37784176  0.36485984  0.90416132    -0.15000
C375        C  0.37585639  0.37192860  0.86045008     0.07200
C376        C  0.40184187  0.39966788  0.84302221    -0.15000
H377        H  0.44889296  0.43996512  0.85406997     0.11200
H378        H  0.40707569  0.37676939  0.96250663     0.11200
H379        H  0.35781449  0.34443373  0.91890129     0.11200
H380        H  0.40101334  0.40777992  0.81029858     0.11200
C381        C  0.41555716  0.14100525  0.93552194    -0.15000
C382        C  0.42610165  0.10393565  0.92146523     0.07200
C383        C  0.40739533  0.08774514  0.88592308    -0.15000
C384        C  0.37934901  0.10817340  0.86465525    -0.15000
C385        C  0.37033105  0.14634728  0.87679367     0.07200
C386        C  0.38791760  0.16191846  0.91356873    -0.15000
H387        H  0.42818773  0.15358048  0.96385295     0.11200
H388        H  0.41356713  0.05858408  0.87506809     0.11200
H389        H  0.36498939  0.09397275  0.83825967     0.11200
H390        H  0.38017148  0.19004183  0.92594718     0.11200
C391        C  0.14137926  0.43205065  0.92035838    -0.15000
C392        C  0.10158613  0.42556564  0.92290678     0.07200
C393        C  0.08455438  0.39550923  0.89846831    -0.15000
C394        C  0.10727730  0.37189151  0.87286127    -0.15000
C395        C  0.14752632  0.37747478  0.87142498     0.07200
C396        C  0.16392471  0.40866197  0.89505846    -0.15000
H397        H  0.15549197  0.45511774  0.93852509     0.11200
H398        H  0.05384827  0.38988978  0.89959878     0.11200
H399        H  0.09349494  0.34865676  0.85466447     0.11200
H400        H  0.19407423  0.41601260  0.89476443     0.11200
C401        C  0.34572165  0.38545087  0.57861642    -0.15000
C402        C  0.36016773  0.36450425  0.61313645     0.07200
C403        C  0.39927513  0.37058898  0.62352468    -0.15000
C404        C  0.42208274  0.39879014  0.60279296    -0.15000
C405        C  0.40705149  0.42080841  0.56969386     0.07200
C406        C  0.36880384  0.41310518  0.55729630    -0.15000
H407        H  0.31678393  0.38061905  0.56731582     0.11200
H408        H  0.41200775  0.35431398  0.64890103     0.11200
H409        H  0.45175415  0.40291486  0.61237831     0.11200
H410        H  0.35664237  0.42833102  0.53080996     0.11200
O411        O  0.46923597  0.91854559  0.47354196    -0.81800
O412        O  0.04088981  0.58286665  0.48430870    -0.81800
O413        O  0.45790065  0.54674652  0.43434826    -0.81800
O414        O  0.09890396  0.97619292  0.47348098    -0.81700
O415        O  0.46178824  0.59119000  0.48363704    -0.81900
O416        O  0.04529283  0.94309163  0.45780506    -0.82800
O417        O  0.05117057  0.53275283  0.44199401    -0.81800
O418        O  0.46088452  0.96623928  0.43039092    -0.81800
C419        C  0.45712316  0.93057979  0.43852020     1.07900
C420        C  0.05565232  0.56876052  0.45084252     1.07800
C421        C  0.45152926  0.58079349  0.44655544     1.08000
C422        C  0.08193880  0.94916377  0.45284543     1.07800
O423        O  0.02596070  0.90628841  0.02946213    -0.81800
O424        O  0.45668593  0.54589190  0.06385564    -0.81800
O425        O  0.42164078  0.96137454  0.01098814    -0.81800
O426        O  0.07977645  0.53486725  0.02654724    -0.81800
O427        O  0.03290225  0.54286642  0.06979845    -0.81800
O428        O  0.46941219  0.95212651  0.05567533    -0.81800
O429        O  0.05796832  0.96173496  0.04257012    -0.81700
O430        O  0.41407640  0.53927753  0.01355620    -0.81800
Co431      Co  0.00808362  0.95125308  0.50938893     1.51500
Co432      Co  0.49843838  0.56208437  0.02648449     1.51700
Co433      Co  0.44001432  0.00180982  0.47302996     1.51600
Co434      Co  0.04913017  0.49601158  0.99203225     1.51500
O435        O  0.49267712  0.00714513  0.49991435    -1.43700
C436        C  0.05239692  0.92470941  0.04927634     1.07900
C437        C  0.42324942  0.55096454  0.05053916     1.07900
C438        C  0.43425038  0.94761700  0.04560891     1.07900
C439        C  0.06783287  0.54738568  0.06143642     1.07900
C440        C  0.16493066  0.66881224  0.35734583     0.84900
C441        C  0.20878363  0.66122518  0.36183275    -0.55400
C442        C  0.23167415  0.68248337  0.33442265     0.07800
C443        C  0.20753704  0.70875365  0.30610256     0.18700
C444        C  0.16205853  0.71391730  0.36250926    -0.56100
C445        C  0.18429767  0.73516242  0.33516395     0.07900
C446        C  0.15608261  0.66111431  0.31024014    -0.55600
C447        C  0.17875995  0.68179862  0.28290648     0.08500
H448        H  0.22017557  0.64064904  0.38418140     0.13000
H449        H  0.22413476  0.72505738  0.28489127    -0.01300
H450        H  0.14437280  0.72834915  0.38528616     0.13300
H451        H  0.13368230  0.64065013  0.29995388     0.13100
C452        C  0.17338065  0.84841342  0.34646785     0.84900
C453        C  0.16638057  0.80466696  0.35733858    -0.55400
C454        C  0.18580188  0.77939253  0.33210897     0.07800
C455        C  0.21021852  0.80130548  0.29901601     0.18700
C456        C  0.21781839  0.85404208  0.34875988    -0.56100
C457        C  0.23747056  0.82918451  0.32364988     0.07900
C458        C  0.16336352  0.85160108  0.29913684    -0.55600
C459        C  0.18271308  0.82671603  0.27365964     0.08500
H460        H  0.14768597  0.79506112  0.38276101     0.13000
H461        H  0.22510613  0.78217347  0.27956232    -0.01300
H462        H  0.23287212  0.87447847  0.36925751     0.13300
H463        H  0.14263687  0.87192357  0.28731041     0.13100
C464        C  0.15586766  0.83562150  0.15430782     0.84900
C465        C  0.19895383  0.84241317  0.14271292    -0.55400
C466        C  0.22386606  0.82157302  0.16673308     0.07800
C467        C  0.20236294  0.79613541  0.19924756     0.18700
C468        C  0.14976242  0.79062880  0.15034025    -0.56100
C469        C  0.17411436  0.76955354  0.17438452     0.07900
C470        C  0.15365187  0.84445271  0.20208372    -0.55600
C471        C  0.17833591  0.82366338  0.22619439     0.08500
H472        H  0.20851097  0.86161903  0.11755768     0.13000
H473        H  0.22114702  0.78021420  0.21770733    -0.01300
H474        H  0.12885698  0.77662842  0.12959614     0.13300
H475        H  0.13417303  0.86545891  0.21516666     0.13100
C476        C  0.15700184  0.65635673  0.16508511     0.84900
C477        C  0.15059675  0.69993585  0.15503730    -0.55400
C478        C  0.17434518  0.72543373  0.17686437     0.07800
C479        C  0.20208449  0.70392605  0.20580235     0.18700
C480        C  0.19998858  0.65023467  0.15685412    -0.56100
C481        C  0.22403252  0.67574672  0.17733721     0.07900
C482        C  0.15320608  0.65342193  0.21366850    -0.55600
C483        C  0.17685144  0.67872444  0.23542110     0.08500
H484        H  0.12904062  0.70924862  0.13283504     0.13000
H485        H  0.22083883  0.72297549  0.22256474    -0.01300
H486        H  0.21010000  0.62765188  0.13595967     0.13300
H487        H  0.13461380  0.63266488  0.22972102     0.13100
C488        C  0.34297917  0.66561762  0.34218444     0.84900
C489        C  0.35065181  0.71021312  0.34540352    -0.55400
C490        C  0.32655666  0.73201893  0.32173647     0.07800
C491        C  0.29746942  0.70645339  0.29724281     0.18700
C492        C  0.29981268  0.65960340  0.35369139    -0.56100
C493        C  0.27531170  0.68126933  0.32995771     0.07900
C494        C  0.34526189  0.65746818  0.29390887    -0.55600
C495        C  0.32132452  0.67912929  0.26997952     0.08500
H496        H  0.37371186  0.72296294  0.36431693     0.13000
H497        H  0.27957859  0.72337495  0.27869577    -0.01300
H498        H  0.28996252  0.64024490  0.37862425     0.13300
H499        H  0.36563389  0.63845868  0.27936534     0.13100
C500        C  0.33115439  0.65911788  0.14876177     0.84900
C501        C  0.28705154  0.65280926  0.14641156    -0.55400
C502        C  0.26696680  0.67707558  0.17195918     0.07800
C503        C  0.29340032  0.70517304  0.19676498     0.18700
C504        C  0.33832953  0.70316602  0.13902310    -0.56100
C505        C  0.31807628  0.72795609  0.16413675     0.07900
C506        C  0.33987780  0.65479830  0.19653979    -0.55600
C507        C  0.32003696  0.67913843  0.22217955     0.08500
H508        H  0.27309056  0.63003110  0.12788000     0.13000
H509        H  0.27768971  0.72333893  0.21652755    -0.01300
H510        H  0.35725064  0.71337736  0.11404231     0.13300
H511        H  0.35900171  0.63314715  0.20876678     0.13100
C512        C  0.33281578  0.84045862  0.13992032     0.84900
C513        C  0.33888690  0.79578664  0.13386361    -0.55400
C514        C  0.31781458  0.77244775  0.16099382     0.07800
C515        C  0.29317241  0.79702380  0.19065439     0.18700
C516        C  0.28854940  0.84511601  0.13603325    -0.56100
C517        C  0.26739732  0.82220889  0.16292908     0.07900
C518        C  0.34134228  0.84813430  0.18706845    -0.55600
C519        C  0.32102865  0.82485097  0.21411185     0.08500
H520        H  0.35847968  0.78418844  0.11073262     0.13000
H521        H  0.27711503  0.78000162  0.21173463    -0.01300
H522        H  0.27470577  0.86492153  0.11491167     0.13300
H523        H  0.36229048  0.87002705  0.19758833     0.13100
C524        C  0.34937112  0.84342581  0.33173819     0.84900
C525        C  0.30674213  0.85105520  0.34244631    -0.55400
C526        C  0.28080694  0.82776875  0.32063852     0.07800
C527        C  0.30091144  0.79940923  0.29088168     0.18700
C528        C  0.35411740  0.79944317  0.33925283    -0.56100
C529        C  0.32846662  0.77590215  0.31824917     0.07900
C530        C  0.35147217  0.84813278  0.28317714    -0.55600
C531        C  0.32570592  0.82504144  0.26143212     0.08500
H532        H  0.29839694  0.87305016  0.36505815     0.13000
H533        H  0.28147500  0.78115000  0.27403887    -0.01300
H534        H  0.37593166  0.78836223  0.36008928     0.13300
H535        H  0.37083162  0.86801468  0.26705360     0.13100
C536        C  0.11091164  0.57794034  0.40012397    -0.15000
C537        C  0.08233424  0.59397048  0.42566779     0.07200
C538        C  0.08225504  0.63458941  0.43098051    -0.15000
C539        C  0.10946764  0.65876855  0.41094495    -0.15000
C540        C  0.13807846  0.64315416  0.38478792     0.07200
C541        C  0.13848346  0.60218097  0.38021209    -0.15000
H542        H  0.11239481  0.54662433  0.39610876     0.11200
H543        H  0.06095404  0.64788724  0.45085035     0.11200
H544        H  0.10678464  0.68960191  0.41597513     0.11200
H545        H  0.15973617  0.58895655  0.36023220     0.11200
C546        C  0.11201020  0.92038427  0.09331402    -0.15000
C547        C  0.07670906  0.90397418  0.07975963     0.07200
C548        C  0.06591468  0.86646631  0.09361584    -0.15000
C549        C  0.09074279  0.84494230  0.11846839    -0.15000
C550        C  0.12768866  0.85979653  0.12901002     0.07200
C551        C  0.13704603  0.89867203  0.11794101    -0.15000
H552        H  0.12082326  0.94958502  0.08382465     0.11200
H553        H  0.03833115  0.85351653  0.08486965     0.11200
H554        H  0.08063389  0.81663689  0.12921926     0.11200
H555        H  0.16409522  0.91214280  0.12763882     0.11200
C556        C  0.41400869  0.59746201  0.11002372    -0.15000
C557        C  0.39806507  0.57639524  0.07577121     0.07200
C558        C  0.36029575  0.58399934  0.06355033    -0.15000
C559        C  0.33868722  0.61118402  0.08597958    -0.15000
C560        C  0.35441016  0.63149647  0.12120660     0.07200
C561        C  0.39293010  0.62514763  0.13156801    -0.15000
H562        H  0.44346966  0.59348633  0.11962922     0.11200
H563        H  0.34765369  0.56938008  0.03635737     0.11200
H564        H  0.31006434  0.61662760  0.07480287     0.11200
H565        H  0.40682791  0.64127977  0.15699984     0.11200
C566        C  0.12199794  0.59503562  0.07134144    -0.15000
C567        C  0.09207124  0.57236537  0.08879128     0.07200
C568        C  0.08178681  0.57825597  0.13099656    -0.15000
C569        C  0.10166573  0.60578006  0.15576544    -0.15000
C570        C  0.13226422  0.62826650  0.13870924     0.07200
C571        C  0.14117207  0.62332245  0.09571290    -0.15000
H572        H  0.12952165  0.59203738  0.03838397     0.11200
H573        H  0.05787908  0.56194183  0.14469504     0.11200
H574        H  0.09197595  0.60964680  0.18771624     0.11200
H575        H  0.16364814  0.64097357  0.08107744     0.11200
C576        C  0.43393180  0.91111336  0.36709614    -0.15000
C577        C  0.43307623  0.90568018  0.41079901     0.07200
C578        C  0.40489290  0.88079455  0.42830371    -0.15000
C579        C  0.37752877  0.86214092  0.40248226    -0.15000
C580        C  0.37818561  0.86711429  0.35841570     0.07200
C581        C  0.40715000  0.89177484  0.34108535    -0.15000
H582        H  0.45516362  0.93074224  0.35309695     0.11200
H583        H  0.40303792  0.87705815  0.46214405     0.11200
H584        H  0.35580991  0.84338824  0.41693150     0.11200
H585        H  0.40976492  0.89683047  0.30776143     0.11200
C586        C  0.40664421  0.63663918  0.43600896    -0.15000
C587        C  0.42641098  0.60477003  0.41970531     0.07200
C588        C  0.41723080  0.59156339  0.37880658    -0.15000
C589        C  0.38956269  0.60976079  0.35460533    -0.15000
C590        C  0.37059026  0.64269371  0.36989150     0.07200
C591        C  0.37879779  0.65507042  0.41157025    -0.15000
H592        H  0.41189410  0.64661277  0.46798621     0.11200
H593        H  0.43076978  0.56617890  0.36565813     0.11200
H594        H  0.38284146  0.59687209  0.32434845     0.11200
H595        H  0.36393245  0.67944013  0.42512343     0.11200
C596        C  0.14353126  0.93337653  0.41795733    -0.15000
C597        C  0.10420327  0.92521811  0.42334591     0.07200
C598        C  0.08733104  0.89309473  0.40212133    -0.15000
C599        C  0.10978964  0.86894689  0.37706759    -0.15000
C600        C  0.14968370  0.87595489  0.37321528     0.07200
C601        C  0.16589539  0.90935299  0.39310625    -0.15000
H602        H  0.15731288  0.95833355  0.43331231     0.11200
H603        H  0.05696922  0.88624277  0.40541296     0.11200
H604        H  0.09608644  0.84426620  0.36114187     0.11200
H605        H  0.19563133  0.91798501  0.38953679     0.11200
C606        C  0.34421471  0.89429068  0.08377218    -0.15000
C607        C  0.35870248  0.86713380  0.11265243     0.07200
C608        C  0.39877565  0.86733893  0.11924158    -0.15000
C609        C  0.42319381  0.89460305  0.09918264    -0.15000
C610        C  0.40837077  0.92186129  0.07097243     0.07200
C611        C  0.36867750  0.92110568  0.06333051    -0.15000
H612        H  0.31415176  0.89549150  0.07629788     0.11200
H613        H  0.41113508  0.84685067  0.14095922     0.11200
H614        H  0.45378090  0.89371970  0.10503808     0.11200
H615        H  0.35639929  0.94121553  0.04113560     0.11200
O616        O  0.46957613  0.91990923  0.97404714    -0.81800
O617        O  0.03940933  0.58246094  0.98755243    -0.81800
O618        O  0.45768087  0.54554792  0.93562808    -0.81800
O619        O  0.09635613  0.97926417  0.97079415    -0.81700
O620        O  0.46251568  0.58933186  0.98570867    -0.81900
O621        O  0.04292480  0.94501331  0.95749227    -0.82800
O622        O  0.04879646  0.53291784  0.94433736    -0.81800
O623        O  0.46358217  0.96743264  0.93041473    -0.81800
C624        C  0.45790432  0.93211197  0.93896900     1.07900
C625        C  0.05363785  0.56880070  0.95360176     1.07800
C626        C  0.45121335  0.57924286  0.94890244     1.08000
C627        C  0.07931311  0.95157581  0.95118722     1.07800
O628        O  0.02772770  0.90385318  0.52903895    -0.81800
O629        O  0.45644761  0.54838241  0.56250974    -0.81800
O630        O  0.42016193  0.95873381  0.51148940    -0.81800
O631        O  0.08131873  0.53500427  0.52403623    -0.81800
O632        O  0.03447459  0.54417736  0.56702544    -0.81800
O633        O  0.46833097  0.94980961  0.55569134    -0.81800
O634        O  0.05972806  0.95872421  0.54397019    -0.81700
O635        O  0.41349451  0.54227379  0.51233181    -0.81800
Co636      Co  0.00584501  0.95330081  0.00920433     1.51500
Co637      Co  0.49788319  0.56384333  0.52454479     1.51700
Co638      Co  0.44227646  0.00353620  0.97190734     1.51600
Co639      Co  0.05042715  0.49614676  0.48997047     1.51500
O640        O  0.49473246  0.00827381  0.99904093    -1.43700
C641        C  0.05439499  0.92142437  0.54922238     1.07900
C642        C  0.42271156  0.55262979  0.54974808     1.07900
C643        C  0.43327058  0.94451761  0.54565536     1.07900
C644        C  0.06957408  0.54772498  0.55885698     1.07900
C645        C  0.16294390  0.66784898  0.85852824     0.84900
C646        C  0.20678028  0.66106161  0.86468927    -0.55400
C647        C  0.23022232  0.68253273  0.83801261     0.07800
C648        C  0.20655524  0.70787755  0.80831847     0.18700
C649        C  0.15894298  0.71291439  0.86266066    -0.56100
C650        C  0.18207198  0.73428052  0.83625925     0.07900
C651        C  0.15553361  0.65953892  0.81124697    -0.55600
C652        C  0.17895182  0.67990892  0.78447993     0.08500
H653        H  0.21779206  0.64106346  0.88788191     0.13000
H654        H  0.22358895  0.72421107  0.78745693    -0.01300
H655        H  0.13915176  0.72711639  0.88342909     0.13300
H656        H  0.13367218  0.63876113  0.80034950     0.13100
C657        C  0.16978939  0.84770121  0.84640446     0.84900
C658        C  0.16325208  0.80387180  0.85776373    -0.55400
C659        C  0.18358794  0.77860467  0.83338190     0.07800
C660        C  0.20871470  0.80058058  0.80104073     0.18700
C661        C  0.21400651  0.85410573  0.85020875    -0.56100
C662        C  0.23481682  0.82947097  0.82601155     0.07900
C663        C  0.16101871  0.84992069  0.79860518    -0.55600
C664        C  0.18147885  0.82485657  0.77425601     0.08500
H665        H  0.14423073  0.79408589  0.88280049     0.13000
H666        H  0.22436755  0.78140460  0.78249659    -0.01300
H667        H  0.22778669  0.87529313  0.87103004     0.13300
H668        H  0.14018908  0.86956698  0.78569558     0.13100
C669        C  0.15734574  0.83012870  0.65379262     0.84900
C670        C  0.20055831  0.83764041  0.64353040    -0.55400
C671        C  0.22528202  0.81762366  0.66873877     0.07800
C672        C  0.20346297  0.79241999  0.70120639     0.18700
C673        C  0.15231112  0.78499745  0.65067063    -0.56100
C674        C  0.17647898  0.76489023  0.67576954     0.07900
C675        C  0.15373729  0.83979604  0.70130701    -0.55600
C676        C  0.17821626  0.82014407  0.72674295     0.08500
H677        H  0.21020192  0.85687565  0.61842691     0.13000
H678        H  0.22211893  0.77708484  0.72060513    -0.01300
H679        H  0.13283647  0.76984437  0.62935686     0.13300
H680        H  0.13361938  0.86073566  0.71326564     0.13100
C681        C  0.16166741  0.65144051  0.66636054     0.84900
C682        C  0.15515868  0.69482797  0.65555314    -0.55400
C683        C  0.17785864  0.72083708  0.67799295     0.07800
C684        C  0.20491579  0.70004756  0.70810190     0.18700
C685        C  0.20501866  0.64573479  0.65974805    -0.56100
C686        C  0.22813082  0.67163775  0.68117658     0.07900
C687        C  0.15639814  0.64919267  0.71491117    -0.55600
C688        C  0.17899621  0.67523258  0.73709718     0.08500
H689        H  0.13399720  0.70360725  0.63263592     0.13000
H690        H  0.22271043  0.71967461  0.72522589    -0.01300
H691        H  0.21605204  0.62322064  0.63933403     0.13300
H692        H  0.13735222  0.62870530  0.73069120     0.13100
C693        C  0.34163518  0.66969997  0.85242455     0.84900
C694        C  0.34773823  0.71451609  0.85473561    -0.55400
C695        C  0.32434517  0.73485181  0.82898731     0.07800
C696        C  0.29699774  0.70794839  0.80376521     0.18700
C697        C  0.29815022  0.66230329  0.86148514    -0.56100
C698        C  0.27409021  0.68271927  0.83591008     0.07900
C699        C  0.34647791  0.66053716  0.80474527    -0.55600
C700        C  0.32289627  0.68074072  0.77870854     0.08500
H701        H  0.36999465  0.72901270  0.87303738     0.13000
H702        H  0.27945391  0.72401339  0.78380446    -0.01300
H703        H  0.28775324  0.64300015  0.88621169     0.13300
H704        H  0.36759683  0.64055800  0.79303942     0.13100
C705        C  0.33679336  0.65651166  0.65885063     0.84900
C706        C  0.29303706  0.64869954  0.65515618    -0.55400
C707        C  0.27133690  0.67321206  0.67861463     0.07800
C708        C  0.29618226  0.70293104  0.70335426     0.18700
C709        C  0.34277728  0.70040672  0.64735812    -0.56100
C710        C  0.32118238  0.72538019  0.67084239     0.07900
C711        C  0.34466378  0.65469534  0.70719959    -0.55600
C712        C  0.32296054  0.67893604  0.73089379     0.08500
H713        H  0.28077661  0.62544134  0.63570547     0.13000
H714        H  0.27941529  0.72131564  0.72165117    -0.01300
H715        H  0.36205287  0.71036467  0.62258778     0.13300
H716        H  0.36422177  0.63530944  0.72220497     0.13100
C717        C  0.33426724  0.83727798  0.64320542     0.84900
C718        C  0.34112867  0.79262711  0.63880071    -0.55400
C719        C  0.32011978  0.76973681  0.66637423     0.07800
C720        C  0.29462228  0.79470827  0.69482532     0.18700
C721        C  0.28998125  0.84104766  0.63858433    -0.56100
C722        C  0.26884951  0.81868634  0.66588568     0.07900
C723        C  0.34218994  0.84645241  0.69027609    -0.55600
C724        C  0.32160945  0.82377072  0.71783555     0.08500
H725        H  0.36115034  0.78071008  0.61632767     0.13000
H726        H  0.27844720  0.77794938  0.71609385    -0.01300
H727        H  0.27595995  0.85984393  0.61658521     0.13300
H728        H  0.36262636  0.86902162  0.70036475     0.13100
C729        C  0.34638458  0.84646241  0.83574902     0.84900
C730        C  0.30345165  0.85358558  0.84547000    -0.55400
C731        C  0.27826525  0.82943636  0.82361039     0.07800
C732        C  0.29933865  0.80090805  0.79495110     0.18700
C733        C  0.35160815  0.80273376  0.84432994    -0.56100
C734        C  0.32640600  0.77846411  0.82365365     0.07900
C735        C  0.34958568  0.84991329  0.78708275    -0.55600
C736        C  0.32458519  0.82599923  0.76534304     0.08500
H737        H  0.29434475  0.87566864  0.86760327     0.13000
H738        H  0.28060500  0.78188222  0.77825362    -0.01300
H739        H  0.37337466  0.79242460  0.86566740     0.13300
H740        H  0.37000478  0.86860461  0.77081947     0.13100
C741        C  0.10474918  0.57816845  0.89798664    -0.15000
C742        C  0.08025547  0.59411095  0.92832009     0.07200
C743        C  0.08466391  0.63400999  0.93798808    -0.15000
C744        C  0.11204905  0.65760786  0.91732974    -0.15000
C745        C  0.13605340  0.64216285  0.88595343     0.07200
C746        C  0.13255965  0.60171133  0.87762448    -0.15000
H747        H  0.10296039  0.54731157  0.89053099     0.11200
H748        H  0.06711128  0.64711510  0.96207004     0.11200
H749        H  0.11410771  0.68775379  0.92691763     0.11200
H750        H  0.15081228  0.58842509  0.85431982     0.11200
C751        C  0.11124917  0.91671294  0.59804548    -0.15000
C752        C  0.07901941  0.89918089  0.57826400     0.07200
C753        C  0.07162020  0.85917832  0.58440099    -0.15000
C754        C  0.09623490  0.83694511  0.60865852    -0.15000
C755        C  0.12969305  0.85381506  0.62706514     0.07200
C756        C  0.13608062  0.89435353  0.62237201    -0.15000
H757        H  0.11764901  0.94757841  0.59417033     0.11200
H758        H  0.04670577  0.84479824  0.57021638     0.11200
H759        H  0.08788836  0.80678526  0.61320256     0.11200
H760        H  0.16068176  0.90870104  0.63720364     0.11200
C761        C  0.40501705  0.57683534  0.62063551    -0.15000
C762        C  0.39687726  0.57482733  0.57737036     0.07200
C763        C  0.36906622  0.59938750  0.56082921    -0.15000
C764        C  0.35050365  0.62599436  0.58717642    -0.15000
C765        C  0.35895688  0.62839378  0.63070733     0.07200
C766        C  0.38665196  0.60315125  0.64679364    -0.15000
H767        H  0.42677279  0.55870762  0.63424763     0.11200
H768        H  0.36291205  0.59924853  0.52735511     0.11200
H769        H  0.32948002  0.64493016  0.57353290     0.11200
H770        H  0.39540999  0.60338879  0.67927864     0.11200
C771        C  0.12534411  0.59339424  0.57039462    -0.15000
C772        C  0.09485599  0.57089031  0.58703424     0.07200
C773        C  0.08566361  0.57467522  0.62978695    -0.15000
C774        C  0.10671188  0.60035198  0.65572222    -0.15000
C775        C  0.13742341  0.62322282  0.63935636     0.07200
C776        C  0.14589178  0.61974735  0.59607654    -0.15000
H777        H  0.13226398  0.59181480  0.53715735     0.11200
H778        H  0.06164828  0.55820075  0.64304670     0.11200
H779        H  0.09757630  0.60264970  0.68802232     0.11200
H780        H  0.16866516  0.63747611  0.58210054     0.11200
C781        C  0.42824830  0.91769715  0.86935814    -0.15000
C782        C  0.43196735  0.90850792  0.91210315     0.07200
C783        C  0.40635639  0.88123125  0.93020942    -0.15000
C784        C  0.37751383  0.86335519  0.90574835    -0.15000
C785        C  0.37461163  0.87103783  0.86222470     0.07200
C786        C  0.40004289  0.89919924  0.84464234    -0.15000
H787        H  0.44693616  0.93970027  0.85512478     0.11200
H788        H  0.40772217  0.87481342  0.96358260     0.11200
H789        H  0.35794541  0.84256511  0.92062881     0.11200
H790        H  0.39841669  0.90792605  0.81215276     0.11200
C791        C  0.41870861  0.64248492  0.93467870    -0.15000
C792        C  0.42448188  0.60333777  0.92442795     0.07200
C793        C  0.40090687  0.58547875  0.89339429    -0.15000
C794        C  0.37305102  0.60651677  0.87231474    -0.15000
C795        C  0.36871219  0.64647354  0.88038518     0.07200
C796        C  0.39112624  0.66375838  0.91314583    -0.15000
H797        H  0.43526716  0.65658575  0.95962058     0.11200
H798        H  0.40343107  0.55481846  0.88581998     0.11200
H799        H  0.35548926  0.59168083  0.84870557     0.11200
H800        H  0.38731828  0.69343001  0.92333512     0.11200
C801        C  0.13837748  0.93795252  0.90927695    -0.15000
C802        C  0.10091264  0.92700006  0.92138026     0.07200
C803        C  0.08519485  0.89134215  0.90656349    -0.15000
C804        C  0.10717294  0.86635068  0.88190885    -0.15000
C805        C  0.14570031  0.87596585  0.87211291     0.07200
C806        C  0.16025703  0.91309394  0.88452938    -0.15000
H807        H  0.15096695  0.96574474  0.91918451     0.11200
H808        H  0.05617030  0.88229354  0.91483925     0.11200
H809        H  0.09412230  0.83910058  0.87107728     0.11200
H810        H  0.18845224  0.92351272  0.87510251     0.11200
C811        C  0.34456270  0.88966092  0.58518296    -0.15000
C812        C  0.35965864  0.86347912  0.61480755     0.07200
C813        C  0.39981977  0.86408403  0.62055440    -0.15000
C814        C  0.42368748  0.89103574  0.59919139    -0.15000
C815        C  0.40813989  0.91780259  0.57084970     0.07200
C816        C  0.36841525  0.91626993  0.56367643    -0.15000
H817        H  0.31444601  0.89050369  0.57800402     0.11200
H818        H  0.41267001  0.84423648  0.64261708     0.11200
H819        H  0.45437149  0.89060681  0.60453549     0.11200
H820        H  0.35557787  0.93582931  0.54129195     0.11200
O821        O  0.96853216  0.42021068  0.47185999    -0.81800
O822        O  0.53699875  0.08242663  0.48553116    -0.81800
O823        O  0.95762203  0.04507103  0.43528541    -0.81800
O824        O  0.59604162  0.47720480  0.47089882    -0.81700
O825        O  0.96352446  0.08927662  0.48485839    -0.81900
O826        O  0.54200707  0.44389519  0.45748623    -0.82800
O827        O  0.54854038  0.03211778  0.44373950    -0.81800
O828        O  0.96064771  0.46840420  0.42953863    -0.81800
C829        C  0.95549592  0.43292109  0.43754765     1.07900
C830        C  0.55208715  0.06826486  0.45223626     1.07800
C831        C  0.95146711  0.07899380  0.44831523     1.08000
C832        C  0.57837756  0.45017518  0.45087409     1.07800
O833        O  0.52853436  0.40409279  0.02707798    -0.81800
O834        O  0.95494066  0.04808569  0.06363018    -0.81800
O835        O  0.92046589  0.45961087  0.01398386    -0.81800
O836        O  0.58012263  0.03489472  0.02605917    -0.81800
O837        O  0.53254125  0.04302658  0.06864130    -0.81800
O838        O  0.96859604  0.44961272  0.05782289    -0.81800
O839        O  0.55881992  0.45933651  0.04456600    -0.81700
O840        O  0.91272470  0.04142242  0.01265313    -0.81800
Co841      Co  0.50514848  0.45277785  0.50924513     1.51500
Co842      Co  0.99669555  0.06404260  0.02581474     1.51700
Co843      Co  0.94150958  0.50439110  0.47258233     1.51600
Co844      Co  0.55030196  0.99673843  0.99032715     1.51500
O845        O  0.99470886  0.50837327  0.49840078    -1.43700
C846        C  0.55412534  0.42188318  0.04867733     1.07900
C847        C  0.92116366  0.05148610  0.05033979     1.07900
C848        C  0.93342274  0.44467379  0.04782981     1.07900
C849        C  0.56772874  0.04671949  0.06103249     1.07900
C850        C  0.66147366  0.16835385  0.35991861     0.84900
C851        C  0.70535956  0.16165737  0.36611627    -0.55400
C852        C  0.72865846  0.18258182  0.33880371     0.07800
C853        C  0.70478707  0.20765135  0.30890398     0.18700
C854        C  0.65783282  0.21343793  0.36379088    -0.56100
C855        C  0.68042845  0.23438869  0.33650950     0.07900
C856        C  0.65399316  0.15922567  0.31293693    -0.55600
C857        C  0.67697869  0.17957895  0.28571420     0.08500
H858        H  0.71650317  0.14198134  0.38955563     0.13000
H859        H  0.72170106  0.22367090  0.28770789    -0.01300
H860        H  0.63982071  0.22792333  0.38627658     0.13300
H861        H  0.63223105  0.13804072  0.30268472     0.13100
C862        C  0.66796738  0.34771816  0.34457368     0.84900
C863        C  0.66126608  0.30411918  0.35648019    -0.55400
C864        C  0.68165753  0.27856957  0.33255530     0.07800
C865        C  0.70670733  0.30007325  0.29972112     0.18700
C866        C  0.71225567  0.35396969  0.34821647    -0.56100
C867        C  0.73292135  0.32902469  0.32426504     0.07900
C868        C  0.65915045  0.34958942  0.29685910    -0.55600
C869        C  0.67962256  0.32440195  0.27276697     0.08500
H870        H  0.64211352  0.29474346  0.38158293     0.13000
H871        H  0.72229329  0.28069247  0.28131257    -0.01300
H872        H  0.72630762  0.37507402  0.36886111     0.13300
H873        H  0.63847409  0.36931415  0.28378977     0.13100
C874        C  0.65586463  0.32985764  0.15251290     0.84900
C875        C  0.69906176  0.33653256  0.14167662    -0.55400
C876        C  0.72362745  0.31649264  0.16691702     0.07800
C877        C  0.70163083  0.29192746  0.19991519     0.18700
C878        C  0.64997084  0.28476238  0.14996882    -0.56100
C879        C  0.67400665  0.26454014  0.17524083     0.07900
C880        C  0.65265646  0.34002797  0.19985446    -0.55600
C881        C  0.67681162  0.32007486  0.22529690     0.08500
H882        H  0.70887132  0.35526414  0.11620515     0.13000
H883        H  0.72013067  0.27657612  0.21940350    -0.01300
H884        H  0.62981374  0.26987323  0.12913210     0.13300
H885        H  0.63278090  0.36125145  0.21172043     0.13100
C886        C  0.65768393  0.15125173  0.16826786     0.84900
C887        C  0.65124583  0.19456798  0.15718385    -0.55400
C888        C  0.67456092  0.22054343  0.17877948     0.07800
C889        C  0.70185425  0.19975099  0.20879593     0.18700
C890        C  0.70089685  0.14516453  0.16093718    -0.56100
C891        C  0.72451564  0.17099637  0.18172977     0.07900
C892        C  0.65295951  0.14931136  0.21678115    -0.55600
C893        C  0.67617200  0.17513679  0.23838681     0.08500
H894        H  0.62992343  0.20334374  0.13443829     0.13000
H895        H  0.72005469  0.21933012  0.22550473    -0.01300
H896        H  0.71144858  0.12242352  0.14048555     0.13300
H897        H  0.63374371  0.12929823  0.23297071     0.13100
C898        C  0.84021208  0.16869057  0.35150578     0.84900
C899        C  0.84663802  0.21356544  0.35364347    -0.55400
C900        C  0.82292163  0.23404997  0.32813964     0.07800
C901        C  0.79513433  0.20717236  0.30343377     0.18700
C902        C  0.79677390  0.16168892  0.36128810    -0.56100
C903        C  0.77250559  0.18228266  0.33605878     0.07900
C904        C  0.84433365  0.15956744  0.30372248    -0.55600
C905        C  0.82046015  0.17972407  0.27806504     0.08500
H906        H  0.86916787  0.22772753  0.37202355     0.13000
H907        H  0.77745898  0.22314828  0.28354974    -0.01300
H908        H  0.78656490  0.14253110  0.38623125     0.13300
H909        H  0.86541182  0.13984477  0.29149966     0.13100
C910        C  0.83278661  0.15407854  0.15839907     0.84900
C911        C  0.78890228  0.14699055  0.15503479    -0.55400
C912        C  0.76772206  0.17203032  0.17851564     0.07800
C913        C  0.79317205  0.20159794  0.20277607     0.18700
C914        C  0.83937850  0.19784701  0.14643416    -0.56100
C915        C  0.81833520  0.22341486  0.16984725     0.07900
C916        C  0.84099387  0.15274745  0.20665053    -0.55600
C917        C  0.81981600  0.17746828  0.23028336     0.08500
H918        H  0.77620082  0.12376274  0.13586887     0.13000
H919        H  0.77681812  0.22030620  0.22122507    -0.01300
H920        H  0.85867947  0.20730806  0.12147142     0.13300
H921        H  0.86085252  0.13373653  0.22165853     0.13100
C922        C  0.83298813  0.33518999  0.14158319     0.84900
C923        C  0.83959105  0.29041065  0.13766378    -0.55400
C924        C  0.81805018  0.26783227  0.16512068     0.07800
C925        C  0.79261620  0.29322358  0.19316369     0.18700
C926        C  0.78872138  0.33923722  0.13641850    -0.56100
C927        C  0.76720291  0.31713930  0.16379996     0.07900
C928        C  0.84032066  0.34471216  0.18865945    -0.55600
C929        C  0.81957402  0.32228031  0.21618599     0.08500
H930        H  0.85971751  0.27818011  0.11551287     0.13000
H931        H  0.77628153  0.27680178  0.21455867    -0.01300
H932        H  0.77517930  0.35840482  0.11435462     0.13300
H933        H  0.86059117  0.36738790  0.19883611     0.13100
C934        C  0.84441413  0.34599650  0.33390534     0.84900
C935        C  0.80148191  0.35313756  0.34344146    -0.55400
C936        C  0.77633514  0.32873876  0.32188785     0.07800
C937        C  0.79743285  0.29990854  0.29355419     0.18700
C938        C  0.84971350  0.30231342  0.34302856    -0.56100
C939        C  0.82465511  0.27773824  0.32253141     0.07900
C940        C  0.84753317  0.34902035  0.28520734    -0.55600
C941        C  0.82257695  0.32482416  0.26369147     0.08500
H942        H  0.79235249  0.37550577  0.36521625     0.13000
H943        H  0.77865742  0.28081452  0.27689908    -0.01300
H944        H  0.87139932  0.29219690  0.36460073     0.13300
H945        H  0.86774811  0.36782573  0.26881573     0.13100
C946        C  0.61000309  0.07771703  0.40596045    -0.15000
C947        C  0.57841044  0.09347308  0.42690096     0.07200
C948        C  0.57472948  0.13405562  0.42744327    -0.15000
C949        C  0.60177754  0.15847226  0.40742218    -0.15000
C950        C  0.63407611  0.14309346  0.38691690     0.07200
C951        C  0.63746718  0.10219428  0.38637793    -0.15000
H952        H  0.61397974  0.04648641  0.40553188     0.11200
H953        H  0.55065190  0.14701244  0.44329122     0.11200
H954        H  0.59603876  0.18916160  0.40748353     0.11200
H955        H  0.66117279  0.08910479  0.37001250     0.11200
C956        C  0.61194104  0.41648135  0.09538669    -0.15000
C957        C  0.57823375  0.39975270  0.07802353     0.07200
C958        C  0.56893272  0.36054362  0.08664097    -0.15000
C959        C  0.59340799  0.33803642  0.11070140    -0.15000
C960        C  0.62849179  0.35385435  0.12612922     0.07200
C961        C  0.63659556  0.39385859  0.11945731    -0.15000
H962        H  0.61971077  0.44678752  0.08958450     0.11200
H963        H  0.54267520  0.34704915  0.07453859     0.11200
H964        H  0.58394625  0.30852286  0.11745325     0.11200
H965        H  0.66238923  0.40754369  0.13243981     0.11200
C966        C  0.89979943  0.07255849  0.12122567    -0.15000
C967        C  0.89401614  0.07249474  0.07754616     0.07200
C968        C  0.86708240  0.09781747  0.06051901    -0.15000
C969        C  0.84771829  0.12392829  0.08676539    -0.15000
C970        C  0.85455524  0.12516772  0.13065040     0.07200
C971        C  0.88047194  0.09823476  0.14733482    -0.15000
H972        H  0.92047208  0.05341940  0.13524457     0.11200
H973        H  0.86248473  0.09887855  0.02677602     0.11200
H974        H  0.82771383  0.14371908  0.07269927     0.11200
H975        H  0.88708265  0.09647039  0.18032203     0.11200
C976        C  0.62099552  0.09452802  0.07247347    -0.15000
C977        C  0.59226369  0.07004130  0.08943451     0.07200
C978        C  0.58383790  0.07221919  0.13250555    -0.15000
C979        C  0.60430389  0.09826849  0.15853906    -0.15000
C980        C  0.63332838  0.12309350  0.14170886     0.07200
C981        C  0.64076159  0.12122122  0.09815974    -0.15000
H982        H  0.62708812  0.09418390  0.03899092     0.11200
H983        H  0.56103589  0.05411100  0.14590429     0.11200
H984        H  0.59626040  0.09899083  0.19127410     0.11200
H985        H  0.66232032  0.14037276  0.08401889     0.11200
C986        C  0.92637676  0.41759061  0.36751586    -0.15000
C987        C  0.92931883  0.40932491  0.41060944     0.07200
C988        C  0.90303864  0.38271649  0.42875509    -0.15000
C989        C  0.87453237  0.36442965  0.40404906    -0.15000
C990        C  0.87250786  0.37102813  0.36025391     0.07200
C991        C  0.89854237  0.39859828  0.34254449    -0.15000
H992        H  0.94557083  0.43905609  0.35314181     0.11200
H993        H  0.90373803  0.37703391  0.46231184     0.11200
H994        H  0.85453356  0.34411440  0.41900409     0.11200
H995        H  0.89779375  0.40636709  0.30972308     0.11200
C996        C  0.91480893  0.14092117  0.43664880    -0.15000
C997        C  0.92446299  0.10321047  0.42372085     0.07200
C998        C  0.90418073  0.08627292  0.38950881    -0.15000
C999        C  0.87579336  0.10657409  0.36833192    -0.15000
C1000       C  0.86767942  0.14531798  0.37919133     0.07200
C1001       C  0.88680426  0.16167459  0.41477264    -0.15000
H1002       H  0.92860251  0.15425054  0.46393081     0.11200
H1003       H  0.90957832  0.05669006  0.37947824     0.11200
H1004       H  0.86059608  0.09192886  0.34276476     0.11200
H1005       H  0.88001107  0.19032394  0.42640463     0.11200
C1006       C  0.63740406  0.43654959  0.40970130    -0.15000
C1007       C  0.59939686  0.42627280  0.42011891     0.07200
C1008       C  0.58279527  0.39203149  0.40273181    -0.15000
C1009       C  0.60469994  0.36739400  0.37756561    -0.15000
C1010       C  0.64384149  0.37605967  0.36990614     0.07200
C1011       C  0.65915522  0.41211111  0.38457695    -0.15000
H1012       H  0.65064682  0.46341810  0.42143334     0.11200
H1013       H  0.55325634  0.38371199  0.40953005     0.11200
H1014       H  0.59128029  0.34097273  0.36496725     0.11200
H1015       H  0.68783100  0.42217018  0.37671092     0.11200
C1016       C  0.84478820  0.38585395  0.08205970    -0.15000
C1017       C  0.85910630  0.36128035  0.11365871     0.07200
C1018       C  0.89888192  0.36392939  0.12224117    -0.15000
C1019       C  0.92281420  0.39181981  0.10226859    -0.15000
C1020       C  0.90792843  0.41727941  0.07211760     0.07200
C1021       C  0.86876696  0.41331791  0.06179381    -0.15000
H1022       H  0.81516651  0.38449353  0.07237244     0.11200
H1023       H  0.91126885  0.34517673  0.14572705     0.11200
H1024       H  0.95307494  0.39310548  0.11010709     0.11200
H1025       H  0.85645977  0.43151486  0.03774041     0.11200
O1026       O  0.96864708  0.41873446  0.97568740    -0.81800
O1027       O  0.54111801  0.08344037  0.98696816    -0.81800
O1028       O  0.95763106  0.04713570  0.93534021    -0.81800
O1029       O  0.59872295  0.47697485  0.97432153    -0.81700
O1030       O  0.96061772  0.09118092  0.98522466    -0.81900
O1031       O  0.54541005  0.44459565  0.95656840    -0.82800
O1032       O  0.55090747  0.03430363  0.94326044    -0.81800
O1033       O  0.96101343  0.46667898  0.93286482    -0.81800
C1034       C  0.95647926  0.43109475  0.94087982     1.07900
C1035       C  0.55606759  0.07002239  0.95321672     1.07800
C1036       C  0.95113070  0.08108639  0.94786600     1.08000
C1037       C  0.58218909  0.45031763  0.95269065     1.07800
O1038       O  0.52481897  0.40543736  0.52978008    -0.81800
O1039       O  0.95861801  0.04603365  0.56350319    -0.81800
O1040       O  0.92115235  0.46199119  0.51158442    -0.81800
O1041       O  0.57829504  0.03593201  0.52582469    -0.81800
O1042       O  0.53109411  0.04424804  0.56865513    -0.81800
O1043       O  0.97021394  0.45079341  0.55398583    -0.81800
O1044       O  0.55780484  0.46027570  0.54246331    -0.81700
O1045       O  0.91534738  0.03954120  0.51388795    -0.81800
Co1046     Co  0.50820250  0.45143048  0.00835068     1.51500
Co1047     Co  0.99996225  0.06208574  0.52567080     1.51700
Co1048     Co  0.94080157  0.50241813  0.97548078     1.51600
Co1049     Co  0.54869523  0.99600066  0.49185271     1.51500
O1050       O  0.99356606  0.50729455  0.00171262    -1.43700
C1051       C  0.55216716  0.42318820  0.54881050     1.07900
C1052       C  0.92511650  0.05133837  0.55063247     1.07900
C1053       C  0.93472654  0.44702870  0.54512796     1.07900
C1054       C  0.56607743  0.04896416  0.56034054     1.07900
C1055       C  0.66542366  0.16845888  0.85702444     0.84900
C1056       C  0.70925539  0.16118740  0.86183366    -0.55400
C1057       C  0.73223511  0.18252596  0.83465101     0.07800
C1058       C  0.70817361  0.20852929  0.80597669     0.18700
C1059       C  0.66180040  0.21354493  0.86165350    -0.56100
C1060       C  0.68439907  0.23494991  0.83470155     0.07900
C1061       C  0.65687477  0.16063901  0.80977498    -0.55600
C1062       C  0.67983748  0.18114629  0.78255506     0.08500
H1063       H  0.72058968  0.14071020  0.88432658     0.13000
H1064       H  0.72490166  0.22482365  0.78482045    -0.01300
H1065       H  0.64238480  0.22764582  0.88298424     0.13300
H1066       H  0.63454213  0.14023308  0.79922676     0.13100
C1067       C  0.67397783  0.34861907  0.84620336     0.84900
C1068       C  0.66634064  0.30478127  0.85671197    -0.55400
C1069       C  0.68588095  0.27930568  0.83168858     0.07800
C1070       C  0.71089147  0.30112819  0.79907536     0.18700
C1071       C  0.71839306  0.35374189  0.84895603    -0.56100
C1072       C  0.73805767  0.32874316  0.82415718     0.07900
C1073       C  0.66459421  0.35197040  0.79856636    -0.55600
C1074       C  0.68386479  0.32671637  0.77328253     0.08500
H1075       H  0.64724038  0.29526176  0.88181617     0.13000
H1076       H  0.72596825  0.28194898  0.77986941    -0.01300
H1077       H  0.73359471  0.37426004  0.86912584     0.13300
H1078       H  0.64418818  0.37246517  0.78641627     0.13100
C1079       C  0.65749018  0.33399954  0.65324894     0.84900
C1080       C  0.70069920  0.34074473  0.64207120    -0.55400
C1081       C  0.72550223  0.32022410  0.66670468     0.07800
C1082       C  0.70378149  0.29508710  0.69928481     0.18700
C1083       C  0.65160441  0.28900913  0.64986217    -0.56100
C1084       C  0.67575433  0.26825113  0.67436817     0.07900
C1085       C  0.65499730  0.34342585  0.70099709    -0.55600
C1086       C  0.67960143  0.32300088  0.72570081     0.08500
H1087       H  0.71037837  0.35987449  0.61690259     0.13000
H1088       H  0.72251491  0.27925269  0.71801751    -0.01300
H1089       H  0.63122719  0.27465228  0.62881498     0.13300
H1090       H  0.63545941  0.36459931  0.71363877     0.13100
C1091       C  0.65886598  0.15511050  0.66454084     0.84900
C1092       C  0.65241342  0.19870305  0.65476998    -0.55400
C1093       C  0.67611726  0.22416378  0.67668859     0.07800
C1094       C  0.70381446  0.20267305  0.70554219     0.18700
C1095       C  0.70192843  0.14919062  0.65612769    -0.56100
C1096       C  0.72591941  0.17464132  0.67702011     0.07900
C1097       C  0.65515797  0.15199887  0.71316216    -0.55600
C1098       C  0.67857344  0.17745940  0.73503784     0.08500
H1099       H  0.63079021  0.20802883  0.63266116     0.13000
H1100       H  0.72233424  0.22184079  0.72243486    -0.01300
H1101       H  0.71209643  0.12691662  0.63486223     0.13300
H1102       H  0.63658899  0.13119217  0.72916413     0.13100
C1103       C  0.84348577  0.16568890  0.84337744     0.84900
C1104       C  0.85121498  0.21020144  0.84653638    -0.55400
C1105       C  0.82729467  0.23194048  0.82266017     0.07800
C1106       C  0.79830006  0.20638977  0.79797106     0.18700
C1107       C  0.80025548  0.15974020  0.85462899    -0.56100
C1108       C  0.77591185  0.18134822  0.83060686     0.07900
C1109       C  0.84608588  0.15739806  0.79519932    -0.55600
C1110       C  0.82230295  0.17890360  0.77103322     0.08500
H1111       H  0.87416809  0.22294337  0.86560754     0.13000
H1112       H  0.78050862  0.22328219  0.77921433    -0.01300
H1113       H  0.79025692  0.14046110  0.87956437     0.13300
H1114       H  0.86661517  0.13849088  0.78080858     0.13100
C1115       C  0.83360321  0.15870987  0.65008440     0.84900
C1116       C  0.78952508  0.15208820  0.64707660    -0.55400
C1117       C  0.76896318  0.17622609  0.67223970     0.07800
C1118       C  0.79498587  0.20445523  0.69748584     0.18700
C1119       C  0.84072113  0.20276364  0.64055605    -0.56100
C1120       C  0.82004180  0.22738574  0.66538564     0.07900
C1121       C  0.84177351  0.15435053  0.69796116    -0.55600
C1122       C  0.82144537  0.17860039  0.72327681     0.08500
H1123       H  0.77590652  0.12916449  0.62840990     0.13000
H1124       H  0.77903891  0.22260751  0.71699278    -0.01300
H1125       H  0.86001269  0.21310575  0.61597563     0.13300
H1126       H  0.86089233  0.13282966  0.71045355     0.13100
C1127       C  0.83454369  0.33981987  0.64105726     0.84900
C1128       C  0.84081895  0.29515483  0.63520305    -0.55400
C1129       C  0.81981221  0.27185430  0.66242938     0.07800
C1130       C  0.79493615  0.29645636  0.69189655     0.18700
C1131       C  0.79027913  0.34388913  0.63671628    -0.56100
C1132       C  0.76912506  0.32126422  0.66376475     0.07900
C1133       C  0.84314727  0.34765069  0.68819780    -0.55600
C1134       C  0.82264827  0.32455191  0.71536645     0.08500
H1135       H  0.86036172  0.28351423  0.61204817     0.13000
H1136       H  0.77874955  0.27939906  0.71287633    -0.01300
H1137       H  0.77636785  0.36215030  0.61404863     0.13300
H1138       H  0.86419680  0.36950738  0.69861414     0.13100
C1139       C  0.84967640  0.34320051  0.83368836     0.84900
C1140       C  0.80701756  0.35041045  0.84411719    -0.55400
C1141       C  0.78139048  0.32732245  0.82171799     0.07800
C1142       C  0.80180754  0.29929280  0.79196907     0.18700
C1143       C  0.85472913  0.29918724  0.84070490    -0.56100
C1144       C  0.82923396  0.27574576  0.81937476     0.07900
C1145       C  0.85237569  0.34810172  0.78505964    -0.55600
C1146       C  0.82679583  0.32508147  0.76285207     0.08500
H1147       H  0.79845936  0.37211691  0.86694899     0.13000
H1148       H  0.78244980  0.28107318  0.77503222    -0.01300
H1149       H  0.87655989  0.28798582  0.86142603     0.13300
H1150       H  0.87269944  0.36725440  0.76922733     0.13100
C1151       C  0.60664359  0.07934282  0.89695890    -0.15000
C1152       C  0.58361308  0.09518986  0.92875085     0.07200
C1153       C  0.58997702  0.13458602  0.93987085    -0.15000
C1154       C  0.61723979  0.15797429  0.91857940    -0.15000
C1155       C  0.63916875  0.14276617  0.88523294     0.07200
C1156       C  0.63433900  0.10259282  0.87605343    -0.15000
H1157       H  0.60355473  0.04879214  0.88843712     0.11200
H1158       H  0.57388244  0.14748934  0.96530008     0.11200
H1159       H  0.62086840  0.18779137  0.92904085     0.11200
H1160       H  0.65126663  0.08935444  0.85151622     0.11200
C1161       C  0.61248831  0.41844588  0.59212808    -0.15000
C1162       C  0.57747330  0.40170801  0.57796880     0.07200
C1163       C  0.56781852  0.36341209  0.59020976    -0.15000
C1164       C  0.59294293  0.34197026  0.61490405    -0.15000
C1165       C  0.62925837  0.35763425  0.62702093     0.07200
C1166       C  0.63786644  0.39681633  0.61657511    -0.15000
H1167       H  0.62066683  0.44807796  0.58361478     0.11200
H1168       H  0.54069756  0.34990524  0.58069758     0.11200
H1169       H  0.58321017  0.31326576  0.62471154     0.11200
H1170       H  0.66452404  0.41070281  0.62691706     0.11200
C1171       C  0.91628065  0.09672813  0.61126189    -0.15000
C1172       C  0.90041787  0.07692656  0.57610372     0.07200
C1173       C  0.86314993  0.08579884  0.56329147    -0.15000
C1174       C  0.84178630  0.11281595  0.58608896    -0.15000
C1175       C  0.85710701  0.13144430  0.62250135     0.07200
C1176       C  0.89530563  0.12408266  0.63346075    -0.15000
H1177       H  0.94548774  0.09184885  0.62122824     0.11200
H1178       H  0.85071078  0.07231020  0.53533736     0.11200
H1179       H  0.81357568  0.11938910  0.57442306     0.11200
H1180       H  0.90903375  0.13918583  0.65969807     0.11200
C1181       C  0.62078043  0.09625231  0.57006146    -0.15000
C1182       C  0.59058855  0.07392723  0.58759637     0.07200
C1183       C  0.58129484  0.07916053  0.63015396    -0.15000
C1184       C  0.60254695  0.10544871  0.65521439    -0.15000
C1185       C  0.63355070  0.12741744  0.63812682     0.07200
C1186       C  0.64145215  0.12323166  0.59480968    -0.15000
H1187       H  0.62761247  0.09376921  0.53686814     0.11200
H1188       H  0.55730312  0.06309789  0.64400605     0.11200
H1189       H  0.59353934  0.10882141  0.68746591     0.11200
H1190       H  0.66415302  0.14056132  0.58015476     0.11200
C1191       C  0.92878880  0.41638804  0.87031014    -0.15000
C1192       C  0.93210056  0.40672569  0.91299523     0.07200
C1193       C  0.90767122  0.37770091  0.92989006    -0.15000
C1194       C  0.88029280  0.35872548  0.90433880    -0.15000
C1195       C  0.87767123  0.36723637  0.86096163     0.07200
C1196       C  0.90206911  0.39685477  0.84452120    -0.15000
H1197       H  0.94660065  0.43958347  0.85695540     0.11200
H1198       H  0.90872079  0.37076504  0.96315441     0.11200
H1199       H  0.86138094  0.33681421  0.91835967     0.11200
H1200       H  0.90052390  0.40606128  0.81217373     0.11200
C1201       C  0.90683555  0.13712321  0.93729519    -0.15000
C1202       C  0.92668390  0.10535528  0.92092935     0.07200
C1203       C  0.91798792  0.09232281  0.87991553    -0.15000
C1204       C  0.89023908  0.11025441  0.85579824    -0.15000
C1205       C  0.87097999  0.14295089  0.87116645     0.07200
C1206       C  0.87901896  0.15544051  0.91282976    -0.15000
H1207       H  0.91189670  0.14699547  0.96934546     0.11200
H1208       H  0.93175590  0.06709041  0.86671385     0.11200
H1209       H  0.88364734  0.09722715  0.82559129     0.11200
H1210       H  0.86399822  0.17972542  0.92635118     0.11200
C1211       C  0.64491511  0.43180516  0.92159086    -0.15000
C1212       C  0.60495353  0.42624434  0.92347601     0.07200
C1213       C  0.58770579  0.39621443  0.89918656    -0.15000
C1214       C  0.61017292  0.37181759  0.87427162    -0.15000
C1215       C  0.65047214  0.37651062  0.87322573     0.07200
C1216       C  0.66729864  0.40756348  0.89685120    -0.15000
H1217       H  0.65917358  0.45478767  0.93974792     0.11200
H1218       H  0.55690532  0.39118761  0.89988650     0.11200
H1219       H  0.59606866  0.34878264  0.85606907     0.11200
H1220       H  0.69761587  0.41417496  0.89678709     0.11200
C1221       C  0.84510787  0.39846867  0.59072812    -0.15000
C1222       C  0.85986904  0.36684475  0.61355624     0.07200
C1223       C  0.90006058  0.36321498  0.61466493    -0.15000
C1224       C  0.92448047  0.38996504  0.59375863    -0.15000
C1225       C  0.90940168  0.42107274  0.57089115     0.07200
C1226       C  0.86947894  0.42480544  0.56945949    -0.15000
H1227       H  0.81494773  0.40426676  0.58959504     0.11200
H1228       H  0.91264079  0.33985042  0.63241028     0.11200
H1229       H  0.95516894  0.38585481  0.59483875     0.11200
H1230       H  0.85699418  0.44843741  0.55202412     0.11200
O1231       O  0.97075837  0.91943438  0.47415563    -0.81800
O1232       O  0.54047015  0.58418605  0.48633887    -0.81800
O1233       O  0.95708758  0.54584899  0.43392156    -0.81800
O1234       O  0.59634999  0.97695872  0.47403696    -0.81700
O1235       O  0.96249166  0.59019663  0.48333422    -0.81900
O1236       O  0.54365770  0.94287787  0.45791383    -0.82800
O1237       O  0.55009218  0.53467187  0.44312505    -0.81800
O1238       O  0.96271480  0.96695694  0.43082124    -0.81800
C1239       C  0.95851603  0.93137390  0.43920098     1.07900
C1240       C  0.55544451  0.57038868  0.45285173     1.07800
C1241       C  0.95194944  0.58010122  0.44629740     1.08000
C1242       C  0.58033001  0.94926250  0.45361464     1.07800
O1243       O  0.52686909  0.90478455  0.02970130    -0.81800
O1244       O  0.95650575  0.54702280  0.06530912    -0.81800
O1245       O  0.92042549  0.96246129  0.01123568    -0.81800
O1246       O  0.58094408  0.53535271  0.02827580    -0.81800
O1247       O  0.53299842  0.54270258  0.07022613    -0.81800
O1248       O  0.96827791  0.95301799  0.05571318    -0.81800
O1249       O  0.55841998  0.96042086  0.04275783    -0.81700
O1250       O  0.91323925  0.53898272  0.01566985    -0.81800
Co1251     Co  0.50593403  0.95074019  0.50925582     1.51500
Co1252     Co  0.99757698  0.56197112  0.02669754     1.51700
Co1253     Co  0.94292606  0.00292946  0.47366189     1.51600
Co1254     Co  0.55136260  0.49648726  0.99264226     1.51500
O1255       O  0.99617967  0.00778413  0.49985237    -1.43700
C1256       C  0.55318896  0.92341195  0.04945854     1.07900
C1257       C  0.92295897  0.55162633  0.05213436     1.07900
C1258       C  0.93318382  0.94813311  0.04551652     1.07900
C1259       C  0.56801646  0.54783700  0.06275955     1.07900
C1260       C  0.66672595  0.66850888  0.35964194     0.84900
C1261       C  0.71058181  0.66059312  0.36305744    -0.55400
C1262       C  0.73313325  0.68196481  0.33542255     0.07800
C1263       C  0.70865273  0.70860235  0.30783031     0.18700
C1264       C  0.66397596  0.71359778  0.36501363    -0.56100
C1265       C  0.68590677  0.73494008  0.33747065     0.07900
C1266       C  0.65694831  0.66126798  0.31263722    -0.55600
C1267       C  0.67929612  0.68197379  0.28501274     0.08500
H1268       H  0.72222301  0.63975713  0.38495537     0.13000
H1269       H  0.72499621  0.72502846  0.28646597    -0.01300
H1270       H  0.64579232  0.72795362  0.38734990     0.13300
H1271       H  0.63414658  0.64116952  0.30259923     0.13100
C1272       C  0.67440257  0.84813172  0.34929298     0.84900
C1273       C  0.66755800  0.80428327  0.35980162    -0.55400
C1274       C  0.68698434  0.77919652  0.33435128     0.07800
C1275       C  0.71120738  0.80136070  0.30129618     0.18700
C1276       C  0.71889459  0.85381046  0.35147995    -0.56100
C1277       C  0.73854285  0.82902513  0.32610953     0.07900
C1278       C  0.66433485  0.85164223  0.30195929    -0.55600
C1279       C  0.68364643  0.82699423  0.27617435     0.08500
H1280       H  0.64903464  0.79448517  0.38528811     0.13000
H1281       H  0.72599774  0.78228355  0.28167964    -0.01300
H1282       H  0.73389912  0.87428759  0.37200444     0.13300
H1283       H  0.64357794  0.87202986  0.29032968     0.13100
C1284       C  0.65669762  0.83658750  0.15661853     0.84900
C1285       C  0.69976552  0.84307756  0.14496431    -0.55400
C1286       C  0.72453916  0.82214676  0.16898183     0.07800
C1287       C  0.70294455  0.79673471  0.20150516     0.18700
C1288       C  0.65029790  0.79171267  0.15262966    -0.56100
C1289       C  0.67433479  0.77045042  0.17672353     0.07900
C1290       C  0.65460369  0.84542569  0.20450038    -0.55600
C1291       C  0.67919233  0.82436832  0.22859659     0.08500
H1292       H  0.70946124  0.86205704  0.11968311     0.13000
H1293       H  0.72167450  0.78058548  0.21983768    -0.01300
H1294       H  0.62928941  0.77791042  0.13185783     0.13300
H1295       H  0.63527455  0.86653889  0.21764861     0.13100
C1296       C  0.65527140  0.65761266  0.16748154     0.84900
C1297       C  0.64922552  0.70132344  0.15788213    -0.55400
C1298       C  0.67367596  0.72639354  0.17936719     0.07800
C1299       C  0.70145129  0.70446397  0.20774895     0.18700
C1300       C  0.69809040  0.65116444  0.15842850    -0.56100
C1301       C  0.72269133  0.67632484  0.17874721     0.07900
C1302       C  0.65208460  0.65448127  0.21609066    -0.55600
C1303       C  0.67641342  0.67933187  0.23758354     0.08500
H1304       H  0.62753728  0.71100230  0.13603955     0.13000
H1305       H  0.72058410  0.72326948  0.22427864    -0.01300
H1306       H  0.70757505  0.62871843  0.13698591     0.13300
H1307       H  0.63329630  0.63408170  0.23235864     0.13100
C1308       C  0.84462949  0.66467595  0.34091281     0.84900
C1309       C  0.85224702  0.70920298  0.34487960    -0.55400
C1310       C  0.82790138  0.73136388  0.32194198     0.07800
C1311       C  0.79850705  0.70615055  0.29746586     0.18700
C1312       C  0.80154621  0.65847016  0.35301452    -0.56100
C1313       C  0.77672537  0.68057478  0.33012524     0.07900
C1314       C  0.84599842  0.65695791  0.29252779    -0.55600
C1315       C  0.82188802  0.67902741  0.26941514     0.08500
H1316       H  0.87534772  0.72160584  0.36401416     0.13000
H1317       H  0.78040078  0.72336301  0.27950988    -0.01300
H1318       H  0.79200870  0.63878627  0.37779164     0.13300
H1319       H  0.86504738  0.63729796  0.27704411     0.13100
C1320       C  0.82917240  0.65935072  0.14796955     0.84900
C1321       C  0.78496427  0.65349039  0.14641254    -0.55400
C1322       C  0.76554865  0.67754805  0.17267216     0.07800
C1323       C  0.79258033  0.70529052  0.19719559     0.18700
C1324       C  0.83643816  0.70342247  0.13847355    -0.56100
C1325       C  0.81699029  0.72813182  0.16440691     0.07900
C1326       C  0.83896689  0.65480509  0.19537075    -0.55600
C1327       C  0.81954998  0.67897501  0.22171082     0.08500
H1328       H  0.77005151  0.63163703  0.12768738     0.13000
H1329       H  0.77731883  0.72343737  0.21742054    -0.01300
H1330       H  0.85512446  0.71372051  0.11332268     0.13300
H1331       H  0.85892484  0.63345811  0.20659384     0.13100
C1332       C  0.83336610  0.84047017  0.14144232     0.84900
C1333       C  0.83892880  0.79581610  0.13512612    -0.55400
C1334       C  0.81774196  0.77260799  0.16222299     0.07800
C1335       C  0.79371612  0.79723826  0.19239768     0.18700
C1336       C  0.78914526  0.84562486  0.13811417    -0.56100
C1337       C  0.76800584  0.82270741  0.16502810     0.07900
C1338       C  0.84231421  0.84796218  0.18862331    -0.55600
C1339       C  0.82195027  0.82476883  0.21578988     0.08500
H1340       H  0.85805235  0.78410831  0.11158349     0.13000
H1341       H  0.77765920  0.78023084  0.21350548    -0.01300
H1342       H  0.77540371  0.86597378  0.11751427     0.13300
H1343       H  0.86339623  0.86973814  0.19910474     0.13100
C1344       C  0.85056089  0.84274282  0.33367094     0.84900
C1345       C  0.80803138  0.85021501  0.34489892    -0.55400
C1346       C  0.78191913  0.82734398  0.32290434     0.07800
C1347       C  0.80183011  0.79922184  0.29262250     0.18700
C1348       C  0.85544080  0.79863001  0.34046407    -0.56100
C1349       C  0.82959834  0.77533984  0.31938814     0.07900
C1350       C  0.85249483  0.84778441  0.28505934    -0.55600
C1351       C  0.82653929  0.82499728  0.26320970     0.08500
H1352       H  0.79984461  0.87193177  0.36790638     0.13000
H1353       H  0.78226821  0.78117159  0.27574425    -0.01300
H1354       H  0.87753604  0.78723826  0.36072000     0.13300
H1355       H  0.87250893  0.86697068  0.26889196     0.13100
C1356       C  0.60911089  0.57892383  0.39995338    -0.15000
C1357       C  0.58337722  0.59525333  0.42877096     0.07200
C1358       C  0.58747500  0.63521336  0.43808544    -0.15000
C1359       C  0.61543902  0.65860660  0.41815027    -0.15000
C1360       C  0.64031520  0.64292129  0.38772287     0.07200
C1361       C  0.63738019  0.60233766  0.38010783    -0.15000
H1362       H  0.60766895  0.54795739  0.39300733     0.11200
H1363       H  0.56898154  0.64861050  0.46108348     0.11200
H1364       H  0.61668137  0.68890392  0.42711235     0.11200
H1365       H  0.65621295  0.58893498  0.35745923     0.11200
C1366       C  0.61346605  0.91953154  0.09220293    -0.15000
C1367       C  0.57775488  0.90313645  0.07997566     0.07200
C1368       C  0.56664269  0.86635381  0.09556500    -0.15000
C1369       C  0.59133667  0.84566526  0.12139970    -0.15000
C1370       C  0.62855677  0.86044906  0.13092747     0.07200
C1371       C  0.63845495  0.89855594  0.11759960    -0.15000
H1372       H  0.62256890  0.94817505  0.08118560     0.11200
H1373       H  0.53881994  0.85346135  0.08767928     0.11200
H1374       H  0.58096226  0.81798725  0.13366404     0.11200
H1375       H  0.66577022  0.91206438  0.12625533     0.11200
C1376       C  0.91492055  0.60574690  0.10373294    -0.15000
C1377       C  0.89802972  0.57775304  0.07639574     0.07200
C1378       C  0.85833098  0.57788073  0.06998347    -0.15000
C1379       C  0.83572708  0.60447901  0.09171755    -0.15000
C1380       C  0.85243032  0.63192840  0.12030619     0.07200
C1381       C  0.89254242  0.63270862  0.12482908    -0.15000
H1382       H  0.94572652  0.60733779  0.10832262     0.11200
H1383       H  0.84474427  0.55736385  0.04820083     0.11200
H1384       H  0.80543768  0.60307835  0.08513680     0.11200
H1385       H  0.90656866  0.65376730  0.14568318     0.11200
C1386       C  0.61899077  0.59886251  0.07264746    -0.15000
C1387       C  0.59113669  0.57372804  0.09029954     0.07200
C1388       C  0.58186365  0.57760178  0.13306822    -0.15000
C1389       C  0.60126655  0.60519252  0.15830264    -0.15000
C1390       C  0.63011896  0.62991399  0.14102694     0.07200
C1391       C  0.63754899  0.62720262  0.09747919    -0.15000
H1392       H  0.62551152  0.59747583  0.03929948     0.11200
H1393       H  0.55941862  0.55935243  0.14694154     0.11200
H1394       H  0.59282898  0.60697521  0.19088778     0.11200
H1395       H  0.65873636  0.64644750  0.08283657     0.11200
C1396       C  0.93173454  0.91465999  0.36860184    -0.15000
C1397       C  0.93426153  0.90639610  0.41167411     0.07200
C1398       C  0.90919277  0.87820042  0.42914768    -0.15000
C1399       C  0.88167051  0.85901018  0.40389582    -0.15000
C1400       C  0.87933593  0.86657849  0.36031310     0.07200
C1401       C  0.90482819  0.89495162  0.34314964    -0.15000
H1402       H  0.95024556  0.93699256  0.35469049     0.11200
H1403       H  0.90978838  0.87219207  0.46264108     0.11200
H1404       H  0.86224931  0.83782797  0.41837073     0.11200
H1405       H  0.90411412  0.90315577  0.31047133     0.11200
C1406       C  0.90374487  0.63278015  0.43683440    -0.15000
C1407       C  0.92814084  0.60508458  0.41938173     0.07200
C1408       C  0.92462357  0.59608885  0.37637072    -0.15000
C1409       C  0.89741522  0.61393740  0.35127813    -0.15000
C1410       C  0.87282418  0.64204477  0.36818111     0.07200
C1411       C  0.87627507  0.65082151  0.41158089    -0.15000
H1412       H  0.90488479  0.63937139  0.47023812     0.11200
H1413       H  0.94237953  0.57416159  0.36215636     0.11200
H1414       H  0.89607320  0.60450641  0.31895716     0.11200
H1415       H  0.85772010  0.67194891  0.42591239     0.11200
C1416       C  0.64312975  0.93296374  0.42082851    -0.15000
C1417       C  0.60361944  0.92488864  0.42522087     0.07200
C1418       C  0.58742408  0.89235974  0.40408424    -0.15000
C1419       C  0.61045539  0.86814397  0.37968986    -0.15000
C1420       C  0.65037400  0.87536469  0.37631947     0.07200
C1421       C  0.66613489  0.90876149  0.39667230    -0.15000
H1422       H  0.65650925  0.95804495  0.43635288     0.11200
H1423       H  0.55704021  0.88535677  0.40674437     0.11200
H1424       H  0.59708914  0.84334628  0.36364501     0.11200
H1425       H  0.69599451  0.91723852  0.39386199     0.11200
C1426       C  0.84429437  0.89175699  0.08252348    -0.15000
C1427       C  0.85903213  0.86674261  0.11346336     0.07200
C1428       C  0.89901018  0.86838381  0.12070711    -0.15000
C1429       C  0.92289844  0.89571389  0.10001370    -0.15000
C1430       C  0.90769935  0.92149853  0.07041937     0.07200
C1431       C  0.86825313  0.91863316  0.06144533    -0.15000
H1432       H  0.81442363  0.89100423  0.07379027     0.11200
H1433       H  0.91167038  0.84915153  0.14354126     0.11200
H1434       H  0.95338173  0.89621591  0.10674677     0.11200
H1435       H  0.85575592  0.93719556  0.03784893     0.11200
O1436       O  0.96865853  0.92162684  0.97362739    -0.81800
O1437       O  0.54090300  0.58326154  0.98852911    -0.81800
O1438       O  0.95605659  0.54435557  0.93720101    -0.81800
O1439       O  0.59729850  0.97712555  0.97165167    -0.81700
O1440       O  0.96110919  0.58895468  0.98635966    -0.81900
O1441       O  0.54387880  0.94324612  0.95729644    -0.82800
O1442       O  0.55189752  0.53381003  0.94551759    -0.81800
O1443       O  0.96196118  0.96947656  0.93058199    -0.81800
C1444       C  0.95650989  0.93405438  0.93879869     1.07900
C1445       C  0.55594693  0.56973436  0.95492038     1.07800
C1446       C  0.94991711  0.57841728  0.94969120     1.08000
C1447       C  0.58032017  0.94982184  0.95140025     1.07800
O1448       O  0.52696410  0.90410481  0.52971864    -0.81800
O1449       O  0.95803266  0.54778850  0.56235237    -0.81800
O1450       O  0.92267881  0.96012323  0.51219988    -0.81800
O1451       O  0.58014542  0.53548609  0.52576446    -0.81800
O1452       O  0.53279571  0.54478094  0.56821743    -0.81800
O1453       O  0.97078040  0.95113400  0.55626521    -0.81800
O1454       O  0.55702756  0.96013996  0.54469647    -0.81700
O1455       O  0.91435994  0.54144402  0.51306013    -0.81800
Co1456     Co  0.50685611  0.95183061  0.00903762     1.51500
Co1457     Co  0.99900817  0.56287833  0.52358964     1.51700
Co1458     Co  0.94128019  0.00518070  0.97288457     1.51600
Co1459     Co  0.54951457  0.49725923  0.49035477     1.51500
O1460       O  0.99367483  0.00978109  0.99994888    -1.43700
C1461       C  0.55299546  0.92273668  0.54996780     1.07900
C1462       C  0.92417904  0.55240166  0.55012774     1.07900
C1463       C  0.93571683  0.94574460  0.54627606     1.07900
C1464       C  0.56797358  0.54837441  0.56046025     1.07900
C1465       C  0.66324748  0.66928938  0.85837922     0.84900
C1466       C  0.70695972  0.66207704  0.86427641    -0.55400
C1467       C  0.73037696  0.68295443  0.83719840     0.07800
C1468       C  0.70680927  0.70856731  0.80756490     0.18700
C1469       C  0.65971091  0.71440869  0.86228712    -0.56100
C1470       C  0.68266028  0.73533869  0.83532426     0.07900
C1471       C  0.65543931  0.66073399  0.81109204    -0.55600
C1472       C  0.67868083  0.68109803  0.78397275     0.08500
H1473       H  0.71791434  0.64203888  0.88746927     0.13000
H1474       H  0.72391971  0.72460489  0.78660446    -0.01300
H1475       H  0.64044871  0.72899028  0.88332427     0.13300
H1476       H  0.63333967  0.64006742  0.80048983     0.13100
C1477       C  0.67130476  0.84877766  0.84435316     0.84900
C1478       C  0.66391479  0.80513433  0.85556677    -0.55400
C1479       C  0.68403734  0.77952960  0.83140587     0.07800
C1480       C  0.70946922  0.80103451  0.79889099     0.18700
C1481       C  0.71563192  0.85427062  0.84815950    -0.56100
C1482       C  0.73597219  0.82922490  0.82405508     0.07900
C1483       C  0.66269036  0.85139583  0.79659684    -0.55600
C1484       C  0.68281288  0.82616643  0.77216754     0.08500
H1485       H  0.64458769  0.79582211  0.88054208     0.13000
H1486       H  0.72493601  0.78165290  0.78027074    -0.01300
H1487       H  0.73009886  0.87477007  0.86906964     0.13300
H1488       H  0.64239738  0.87163618  0.78373218     0.13100
C1489       C  0.65971904  0.83360236  0.65169209     0.84900
C1490       C  0.70314275  0.84033886  0.64150081    -0.55400
C1491       C  0.72736961  0.81972230  0.66669141     0.07800
C1492       C  0.70489883  0.79468432  0.69888906     0.18700
C1493       C  0.65379643  0.78854610  0.64819156    -0.56100
C1494       C  0.67737130  0.76775023  0.67348544     0.07900
C1495       C  0.65614633  0.84299221  0.69923525    -0.55600
C1496       C  0.68007323  0.82255252  0.72455926     0.08500
H1497       H  0.71343303  0.85921503  0.61638673     0.13000
H1498       H  0.72309072  0.77892553  0.71827133    -0.01300
H1499       H  0.63340748  0.77435105  0.62697090     0.13300
H1500       H  0.63625532  0.86409898  0.71131455     0.13100
C1501       C  0.66001406  0.65443443  0.66556582     0.84900
C1502       C  0.65415036  0.69790688  0.65461930    -0.55400
C1503       C  0.67729450  0.72361369  0.67689436     0.07800
C1504       C  0.70398508  0.70236050  0.70727842     0.18700
C1505       C  0.70327870  0.64800190  0.65917345    -0.56100
C1506       C  0.72675478  0.67368346  0.68023846     0.07900
C1507       C  0.65472870  0.65204035  0.71407124    -0.55600
C1508       C  0.67781474  0.67755072  0.73638880     0.08500
H1509       H  0.63335668  0.70701543  0.63144428     0.13000
H1510       H  0.72224593  0.72167302  0.72433827    -0.01300
H1511       H  0.71412234  0.62495850  0.63938972     0.13300
H1512       H  0.63555988  0.63132329  0.72951360     0.13100
C1513       C  0.84148097  0.66707042  0.84949707     0.84900
C1514       C  0.84874751  0.71176573  0.85224931    -0.55400
C1515       C  0.82526138  0.73296754  0.82721566     0.07800
C1516       C  0.79707175  0.70685934  0.80218052     0.18700
C1517       C  0.79803557  0.66075242  0.85941819    -0.56100
C1518       C  0.77412699  0.68198638  0.83446125     0.07900
C1519       C  0.84545321  0.65843823  0.80156810    -0.55600
C1520       C  0.82193634  0.67933714  0.77636140     0.08500
H1521       H  0.87144996  0.72513737  0.87111841     0.13000
H1522       H  0.77960217  0.72336669  0.78269443    -0.01300
H1523       H  0.78757673  0.64153627  0.88419253     0.13300
H1524       H  0.86655709  0.63915418  0.78863780     0.13100
C1525       C  0.83478823  0.65660517  0.65618142     0.84900
C1526       C  0.79083995  0.64981350  0.65281471    -0.55400
C1527       C  0.76990129  0.67461971  0.67688226     0.07800
C1528       C  0.79558473  0.70347813  0.70173458     0.18700
C1529       C  0.84177501  0.70038713  0.64531825    -0.56100
C1530       C  0.82100801  0.72560433  0.66930907     0.07900
C1531       C  0.84249587  0.65354045  0.70435929    -0.55600
C1532       C  0.82182814  0.67831162  0.72862087     0.08500
H1533       H  0.77786376  0.62677496  0.63366182     0.13000
H1534       H  0.77927448  0.72204120  0.72047259    -0.01300
H1535       H  0.86119434  0.71012818  0.62058598     0.13300
H1536       H  0.86063415  0.63202051  0.71835277     0.13100
C1537       C  0.83723738  0.83730352  0.64299387     0.84900
C1538       C  0.84326235  0.79257134  0.63843024    -0.55400
C1539       C  0.82119354  0.76997693  0.66528761     0.07800
C1540       C  0.79587977  0.79525763  0.69345704     0.18700
C1541       C  0.79312777  0.84230332  0.63762888    -0.56100
C1542       C  0.77102658  0.82001411  0.66425443     0.07900
C1543       C  0.84435616  0.84612915  0.69032900    -0.55600
C1544       C  0.82315292  0.82347075  0.71724177     0.08500
H1545       H  0.86341331  0.78037604  0.61628309     0.13000
H1546       H  0.77917609  0.77866971  0.71433366    -0.01300
H1547       H  0.78027314  0.86256240  0.61613962     0.13300
H1548       H  0.86468902  0.86844394  0.70122493     0.13100
C1549       C  0.84731470  0.84455910  0.83562944     0.84900
C1550       C  0.80444956  0.85180554  0.84487832    -0.55400
C1551       C  0.77934217  0.82813189  0.82245633     0.07800
C1552       C  0.80042195  0.79961201  0.79382572     0.18700
C1553       C  0.85238897  0.80066230  0.84379646    -0.56100
C1554       C  0.82729219  0.77669827  0.82257948     0.07900
C1555       C  0.85110110  0.84834538  0.78707402    -0.55600
C1556       C  0.82601362  0.82490961  0.76477237     0.08500
H1557       H  0.79536109  0.87393379  0.86695488     0.13000
H1558       H  0.78151458  0.78102086  0.77668217    -0.01300
H1559       H  0.87400262  0.78984844  0.86501715     0.13300
H1560       H  0.87218174  0.86690173  0.77152808     0.13100
C1561       C  0.60832570  0.57924128  0.90112809    -0.15000
C1562       C  0.58233697  0.59527186  0.92981849     0.07200
C1563       C  0.58455852  0.63561950  0.93750441    -0.15000
C1564       C  0.61121949  0.65957904  0.91621380    -0.15000
C1565       C  0.63667605  0.64392089  0.88634661     0.07200
C1566       C  0.63532359  0.60314656  0.88011980    -0.15000
H1567       H  0.60820484  0.54808217  0.89531082     0.11200
H1568       H  0.56565741  0.64881736  0.96023284     0.11200
H1569       H  0.61125118  0.69018392  0.92386512     0.11200
H1570       H  0.65467436  0.58983557  0.85794831     0.11200
C1571       C  0.61478256  0.91783565  0.59029893    -0.15000
C1572       C  0.57871364  0.90173484  0.57886833     0.07200
C1573       C  0.56859392  0.86409552  0.59283523    -0.15000
C1574       C  0.59434584  0.84251153  0.61647914    -0.15000
C1575       C  0.63169451  0.85724923  0.62546118     0.07200
C1576       C  0.64084929  0.89596024  0.61351695    -0.15000
H1577       H  0.62326371  0.94699876  0.58035880     0.11200
H1578       H  0.54065197  0.85122955  0.58542345     0.11200
H1579       H  0.58453916  0.81429699  0.62782125     0.11200
H1580       H  0.66826931  0.90938152  0.62192804     0.11200
C1581       C  0.91187620  0.58647421  0.61808066    -0.15000
C1582       C  0.89885763  0.57569012  0.57759554     0.07200
C1583       C  0.86506005  0.59210232  0.56241319    -0.15000
C1584       C  0.84486711  0.61859862  0.58737049    -0.15000
C1585       C  0.85752905  0.62872252  0.62843395     0.07200
C1586       C  0.89200917  0.61289837  0.64270827    -0.15000
H1587       H  0.93843697  0.57545174  0.63046373     0.11200
H1588       H  0.85493803  0.58549040  0.53082775     0.11200
H1589       H  0.81937675  0.63133597  0.57437984     0.11200
H1590       H  0.90477186  0.62150486  0.67245390     0.11200
C1591       C  0.62622241  0.59042876  0.57285017    -0.15000
C1592       C  0.59274843  0.57232522  0.58859484     0.07200
C1593       C  0.58034216  0.58182772  0.62936889    -0.15000
C1594       C  0.60137387  0.60848388  0.65425258    -0.15000
C1595       C  0.63539948  0.62633479  0.63888994     0.07200
C1596       C  0.64666151  0.61782811  0.59723366    -0.15000
H1597       H  0.63570923  0.58472361  0.54096501     0.11200
H1598       H  0.55387927  0.56920124  0.64176017     0.11200
H1599       H  0.59005285  0.61565188  0.68488990     0.11200
H1600       H  0.67156050  0.63230240  0.58338930     0.11200
C1601       C  0.92345272  0.92167119  0.87018224    -0.15000
C1602       C  0.93061471  0.91024572  0.91180415     0.07200
C1603       C  0.90866955  0.87948312  0.92916802    -0.15000
C1604       C  0.88052304  0.86008851  0.90505237    -0.15000
C1605       C  0.87487818  0.86966313  0.86233949     0.07200
C1606       C  0.89598181  0.90166169  0.84569956    -0.15000
H1607       H  0.93889231  0.94643149  0.85663700     0.11200
H1608       H  0.91238192  0.87124206  0.96182006     0.11200
H1609       H  0.86363702  0.83686690  0.91963605     0.11200
H1610       H  0.89112834  0.91217525  0.81420061     0.11200
C1611       C  0.91089854  0.63853126  0.93866715    -0.15000
C1612       C  0.92413408  0.60262219  0.92398819     0.07200
C1613       C  0.90816767  0.58684569  0.88669520    -0.15000
C1614       C  0.88028047  0.60652739  0.86431824    -0.15000
C1615       C  0.86844071  0.64359033  0.87730514     0.07200
C1616       C  0.88319396  0.65863389  0.91578279    -0.15000
H1617       H  0.92139293  0.65073200  0.96817971     0.11200
H1618       H  0.91644683  0.55851332  0.87515223     0.11200
H1619       H  0.86804370  0.59233688  0.83672619     0.11200
H1620       H  0.87335539  0.68594174  0.92843476     0.11200
C1621       C  0.64132448  0.93473014  0.91463353    -0.15000
C1622       C  0.60223614  0.92612763  0.92115941     0.07200
C1623       C  0.58525577  0.89388307  0.90014650    -0.15000
C1624       C  0.60750246  0.86976855  0.87470362    -0.15000
C1625       C  0.64732137  0.87690326  0.87026272     0.07200
C1626       C  0.66343585  0.91081032  0.88932560    -0.15000
H1627       H  0.65513680  0.95991840  0.92951049     0.11200
H1628       H  0.55500345  0.88680264  0.90405759     0.11200
H1629       H  0.59375164  0.84486631  0.85923781     0.11200
H1630       H  0.69295785  0.91986835  0.88481138     0.11200
C1631       C  0.84952526  0.88289971  0.57946326    -0.15000
C1632       C  0.86342192  0.86294519  0.61487701     0.07200
C1633       C  0.90240686  0.86919168  0.62581948    -0.15000
C1634       C  0.92550564  0.89696592  0.60473472    -0.15000
C1635       C  0.91073888  0.91837086  0.57100325     0.07200
C1636       C  0.87274527  0.91022524  0.55805881    -0.15000
H1637       H  0.82086201  0.87753669  0.56754962     0.11200
H1638       H  0.91478952  0.85339720  0.65176443     0.11200
H1639       H  0.95506210  0.90137158  0.61463037     0.11200
H1640       H  0.86085045  0.92484476  0.53101856     0.11200
loop_ 
_geom_bond_atom_site_label_1 
_geom_bond_atom_site_label_2 
_geom_bond_distance 
_geom_bond_site_symmetry_2 
_ccdc_geom_bond_type 
O1            C9   1.262       .  A
O1         Co841   2.010       .  S
O2           C10   1.279       .  A
O2        Co1047   2.030   1_455  S
O3           C11   1.256       .  A
O3         Co433   1.951       .  S
O4           C12   1.264       .  A
O4         Co639   1.877       .  S
O5           C11   1.273       .  A
O5         Co227   2.042       .  S
O6           C12   1.299       .  A
O6          Co21   2.114       .  S
O7           C10   1.272       .  A
O7         Co229   1.981   1_545  S
O8            C9   1.253       .  A
O8          Co23   1.968       .  S
C9          C167   1.466       .  S
C10         C127   1.493       .  S
C11         C177   1.484       .  S
C12         C187   1.479       .  S
O13          C26   1.268       .  A
O13        Co226   1.888       .  S
O14          C27   1.259       .  A
O14         Co22   1.953       .  S
O15          C28   1.278       .  A
O15        Co228   2.023   1_554  S
O16          C29   1.262       .  A
O16         Co24   2.002   1_544  S
O17          C29   1.254       .  A
O17        Co842   1.966   1_455  S
O18          C28   1.270       .  A
O18       Co1046   1.973       .  S
O19          C26   1.296       .  A
O19        Co434   2.103   1_554  S
O20          C27   1.274       .  A
O20        Co638   2.044   1_554  S
Co21        O821   2.016   1_455  S
Co21        O218   1.894       .  S
Co21       O1043   1.975   1_455  S
Co21        O845   2.024   1_455  S
Co22       O1027   2.037   1_554  S
Co22        O210   2.039   1_554  S
Co22        O837   1.968       .  S
Co22        O640   2.023   1_554  S
Co23        O413   1.948       .  S
Co23        O220   2.033       .  S
Co23        O635   2.051       .  S
Co23         O25   2.025       .  S
Co24        O619   1.890       .  S
Co24        O212   1.974   1_565  S
Co24        O429   2.110   1_556  S
Co24       O1460   2.010   1_465  S
O25        Co841   2.013       .  S
O25        Co637   2.031       .  S
O25       Co1459   2.013       .  S
C26         C137   1.476       .  S
C27         C147   1.484       .  S
C28         C200   1.483       .  S
C29         C157   1.465       .  S
C30          C31   1.563       .  S
C30          C36   1.547       .  S
C30          C34   1.561       .  S
C30         C130   1.542       .  S
C31          H38   1.085       .  S
C31          C32   1.377       .  D
C32          C33   1.538       .  S
C32          C83   1.527       .  S
C33          C37   1.533       .  S
C33          C35   1.537       .  S
C33          H39   1.043       .  S
C34          H40   1.079       .  S
C34          C35   1.367       .  D
C35          C44   1.520       .  S
C36          H41   1.084       .  S
C36          C37   1.362       .  D
C37          C73   1.513       .  S
C42          C43   1.553       .  S
C42          C48   1.547       .  S
C42          C46   1.558       .  S
C42         C190   1.528       .  S
C43          H50   1.084       .  S
C43          C44   1.369       .  D
C44          C45   1.539       .  S
C45          C49   1.538       .  S
C45          C47   1.538       .  S
C45          H51   1.046       .  S
C46          H52   1.079       .  S
C46          C47   1.364       .  D
C47         C116   1.515       .  S
C48          H53   1.085       .  S
C48          C49   1.366       .  D
C49          C61   1.515       .  S
C54          C55   1.556       .  S
C54          C60   1.545       .  S
C54          C58   1.552       .  S
C54         C140   1.526       .  S
C55          H62   1.084       .  S
C55          C56   1.372       .  D
C56          C57   1.537       .  S
C56         C107   1.520       .  S
C57          C61   1.538       .  S
C57          C59   1.538       .  S
C57          H63   1.047       .  S
C58          H64   1.082       .  S
C58          C59   1.362       .  D
C59          C68   1.511       .  S
C60          H65   1.085       .  S
C60          C61   1.366       .  D
C66          C67   1.549       .  S
C66          C72   1.553       .  S
C66          C70   1.543       .  S
C66         C160   1.520       .  S
C67          H74   1.084       .  S
C67          C68   1.370       .  D
C68          C69   1.534       .  S
C69          C73   1.538       .  S
C69          C71   1.539       .  S
C69          H75   1.051       .  S
C70          H76   1.084       .  S
C70          C71   1.359       .  D
C71          C92   1.506       .  S
C72          H77   1.079       .  S
C72          C73   1.366       .  D
C78          C79   1.548       .  S
C78          C84   1.553       .  S
C78          C82   1.555       .  S
C78         C180   1.533       .  S
C79          H86   1.084       .  S
C79          C80   1.367       .  D
C80          C81   1.535       .  S
C80         C119   1.509       .  S
C81          C85   1.534       .  S
C81          C83   1.547       .  S
C81          H87   1.048       .  S
C82          H88   1.085       .  S
C82          C83   1.372       .  D
C84          H89   1.080       .  S
C84          C85   1.361       .  D
C85          C97   1.514       .  S
C90          C91   1.546       .  S
C90          C96   1.555       .  S
C90          C94   1.558       .  S
C90         C150   1.536       .  S
C91          H98   1.084       .  S
C91          C92   1.368       .  D
C92          C93   1.533       .  S
C93          C97   1.530       .  S
C93          C95   1.545       .  S
C93          H99   1.046       .  S
C94         H100   1.085       .  S
C94          C95   1.374       .  D
C95         C104   1.529       .  S
C96         H101   1.079       .  S
C96          C97   1.361       .  D
C102        C103   1.563       .  S
C102        C108   1.545       .  S
C102        C106   1.559       .  S
C102        C197   1.536       .  S
C103        H110   1.085       .  S
C103        C104   1.377       .  D
C104        C105   1.542       .  S
C105        C109   1.534       .  S
C105        C107   1.538       .  S
C105        H111   1.042       .  S
C106        H112   1.078       .  S
C106        C107   1.363       .  D
C108        H113   1.084       .  S
C108        C109   1.360       .  D
C109        C121   1.511       .  S
C114        C115   1.552       .  S
C114        C120   1.553       .  S
C114        C118   1.543       .  S
C114        C170   1.525       .  S
C115        H122   1.084       .  S
C115        C116   1.371       .  D
C116        C117   1.536       .  S
C117        C121   1.536       .  S
C117        C119   1.537       .  S
C117        H123   1.051       .  S
C118        H124   1.084       .  S
C118        C119   1.361       .  D
C120        H125   1.078       .  S
C120        C121   1.367       .  D
C126        C127   1.406       .  A
C126        C131   1.405       .  A
C126        H132   1.083       .  S
C127        C128   1.405       .  A
C128        C129   1.402       .  A
C128        H133   1.083       .  S
C129        C130   1.413       .  A
C129        H134   1.076       .  S
C130        C131   1.412       .  A
C131        H135   1.083       .  S
C136        C137   1.405       .  A
C136        C141   1.400       .  A
C136        H142   1.083       .  S
C137        C138   1.401       .  A
C138        C139   1.395       .  A
C138        H143   1.083       .  S
C139        C140   1.411       .  A
C139        H144   1.080       .  S
C140        C141   1.409       .  A
C141        H145   1.082       .  S
C146        C147   1.403       .  A
C146        C151   1.389       .  A
C146        H152   1.083       .  S
C147        C148   1.406       .  A
C148        C149   1.408       .  A
C148        H153   1.083       .  S
C149        C150   1.414       .  A
C149        H154   1.082       .  S
C150        C151   1.408       .  A
C151        H155   1.078       .  S
C156        C157   1.400       .  A
C156        C161   1.393       .  A
C156        H162   1.084       .  S
C157        C158   1.401       .  A
C158        C159   1.395       .  A
C158        H163   1.083       .  S
C159        C160   1.409       .  A
C159        H164   1.077       .  S
C160        C161   1.409       .  A
C161        H165   1.083       .  S
C166        C167   1.400       .  A
C166        C171   1.397       .  A
C166        H172   1.084       .  S
C167        C168   1.400       .  A
C168        C169   1.395       .  A
C168        H173   1.084       .  S
C169        C170   1.409       .  A
C169        H174   1.083       .  S
C170        C171   1.412       .  A
C171        H175   1.076       .  S
C176        C177   1.406       .  A
C176        C181   1.405       .  A
C176        H182   1.083       .  S
C177        C178   1.404       .  A
C178        C179   1.392       .  A
C178        H183   1.083       .  S
C179        C180   1.409       .  A
C179        H184   1.079       .  S
C180        C181   1.412       .  A
C181        H185   1.082       .  S
C186        C187   1.404       .  A
C186        C191   1.393       .  A
C186        H192   1.083       .  S
C187        C188   1.403       .  A
C188        C189   1.401       .  A
C188        H193   1.083       .  S
C189        C190   1.411       .  A
C189        H194   1.083       .  S
C190        C191   1.409       .  A
C191        H195   1.076       .  S
C196        C197   1.412       .  A
C196        C201   1.396       .  A
C196        H202   1.075       .  S
C197        C198   1.411       .  A
C198        C199   1.403       .  A
C198        H203   1.083       .  S
C199        C200   1.405       .  A
C199        H204   1.083       .  S
C200        C201   1.402       .  A
C201        H205   1.083       .  S
O206        C214   1.261       .  A
O206      Co1046   2.009   1_556  S
O207        C215   1.280       .  A
O207       Co842   2.033   1_456  S
O208        C216   1.256       .  A
O208       Co638   1.949       .  S
O209        C217   1.265       .  A
O209       Co434   1.879       .  S
O210        C216   1.274       .  A
O211        C217   1.298       .  A
O211       Co226   2.119   1_556  S
O212        C215   1.271       .  A
O213        C214   1.251       .  A
O213       Co228   1.964       .  S
C214        C372   1.468       .  S
C215        C332   1.489       .  S
C216        C382   1.482       .  S
C217        C392   1.482       .  S
O218        C231   1.268       .  A
O219        C232   1.259       .  A
O219       Co227   1.957       .  S
O220        C233   1.280       .  A
O221        C234   1.260       .  A
O221       Co229   1.998   1_545  S
O222        C234   1.254       .  A
O222      Co1047   1.975   1_455  S
O223        C233   1.272       .  A
O223       Co841   1.976       .  S
O224        C231   1.298       .  A
O224       Co639   2.112       .  S
O225        C232   1.277       .  A
O225       Co433   2.051       .  S
Co226      O1026   2.008   1_454  S
Co226       O838   1.982   1_455  S
Co226      O1050   2.022   1_455  S
Co227       O822   2.031       .  S
Co227      O1042   1.970       .  S
Co227       O435   2.034       .  S
Co228       O618   1.946       .  S
Co228       O430   2.049   1_556  S
Co228       O230   2.026   1_556  S
Co229       O414   1.878       .  S
Co229       O634   2.117       .  S
Co229      O1255   2.015   1_465  S
O230      Co1046   2.020       .  S
O230       Co432   2.026       .  S
O230      Co1254   2.016   1_554  S
C231        C342   1.489       .  S
C232        C352   1.482       .  S
C233        C405   1.492       .  S
C234        C362   1.469       .  S
C235        C236   1.564       .  S
C235        C241   1.547       .  S
C235        C239   1.559       .  S
C235        C335   1.541       .  S
C236        H243   1.085       .  S
C236        C237   1.379       .  D
C237        C238   1.539       .  S
C237        C288   1.530       .  S
C238        C242   1.532       .  S
C238        C240   1.538       .  S
C238        H244   1.043       .  S
C239        H245   1.078       .  S
C239        C240   1.364       .  D
C240        C249   1.520       .  S
C241        H246   1.084       .  S
C241        C242   1.362       .  D
C242        C278   1.511       .  S
C247        C248   1.553       .  S
C247        C253   1.552       .  S
C247        C251   1.557       .  S
C247        C395   1.534       .  S
C248        H255   1.084       .  S
C248        C249   1.370       .  D
C249        C250   1.537       .  S
C250        C254   1.541       .  S
C250        C252   1.540       .  S
C250        H256   1.047       .  S
C251        H257   1.077       .  S
C251        C252   1.359       .  D
C252        C321   1.514       .  S
C253        H258   1.085       .  S
C253        C254   1.369       .  D
C254        C266   1.522       .  S
C259        C260   1.558       .  S
C259        C265   1.551       .  S
C259        C263   1.558       .  S
C259        C345   1.540       .  S
C260        H267   1.084       .  S
C260        C261   1.374       .  D
C261        C262   1.538       .  S
C261        C312   1.524       .  S
C262        C266   1.540       .  S
C262        C264   1.540       .  S
C262        H268   1.047       .  S
C263        H269   1.079       .  S
C263        C264   1.363       .  D
C264        C273   1.519       .  S
C265        H270   1.085       .  S
C265        C266   1.369       .  D
C271        C272   1.554       .  S
C271        C277   1.551       .  S
C271        C275   1.543       .  S
C271        C365   1.526       .  S
C272        H279   1.084       .  S
C272        C273   1.373       .  D
C273        C274   1.535       .  S
C274        C278   1.539       .  S
C274        C276   1.540       .  S
C274        H280   1.053       .  S
C275        H281   1.084       .  S
C275        C276   1.360       .  D
C276        C297   1.509       .  S
C277        H282   1.079       .  S
C277        C278   1.366       .  D
C283        C284   1.548       .  S
C283        C289   1.552       .  S
C283        C287   1.555       .  S
C283        C385   1.531       .  S
C284        H291   1.081       .  S
C284        C285   1.365       .  D
C285        C286   1.531       .  S
C285        C324   1.505       .  S
C286        C290   1.535       .  S
C286        C288   1.549       .  S
C286        H292   1.047       .  S
C287        H293   1.085       .  S
C287        C288   1.372       .  D
C289        H294   1.083       .  S
C289        C290   1.363       .  D
C290        C302   1.515       .  S
C295        C296   1.544       .  S
C295        C301   1.557       .  S
C295        C299   1.562       .  S
C295        C355   1.540       .  S
C296        H303   1.084       .  S
C296        C297   1.366       .  D
C297        C298   1.531       .  S
C298        C302   1.532       .  S
C298        C300   1.548       .  S
C298        H304   1.047       .  S
C299        H305   1.085       .  S
C299        C300   1.376       .  D
C300        C309   1.532       .  S
C301        H306   1.077       .  S
C301        C302   1.364       .  D
C307        C308   1.563       .  S
C307        C313   1.548       .  S
C307        C311   1.560       .  S
C307        C402   1.541       .  S
C308        H315   1.085       .  S
C308        C309   1.377       .  D
C309        C310   1.540       .  S
C310        C314   1.536       .  S
C310        C312   1.542       .  S
C310        H316   1.044       .  S
C311        H317   1.080       .  S
C311        C312   1.367       .  D
C313        H318   1.084       .  S
C313        C314   1.360       .  D
C314        C326   1.513       .  S
C319        C320   1.552       .  S
C319        C325   1.554       .  S
C319        C323   1.541       .  S
C319        C375   1.527       .  S
C320        H327   1.084       .  S
C320        C321   1.375       .  D
C321        C322   1.532       .  S
C322        C326   1.535       .  S
C322        C324   1.538       .  S
C322        H328   1.052       .  S
C323        H329   1.084       .  S
C323        C324   1.359       .  D
C325        H330   1.078       .  S
C325        C326   1.367       .  D
C331        C332   1.406       .  A
C331        C336   1.404       .  A
C331        H337   1.083       .  S
C332        C333   1.404       .  A
C333        C334   1.401       .  A
C333        H338   1.083       .  S
C334        C335   1.414       .  A
C334        H339   1.076       .  S
C335        C336   1.411       .  A
C336        H340   1.083       .  S
C341        C342   1.407       .  A
C341        C346   1.407       .  A
C341        H347   1.083       .  S
C342        C343   1.403       .  A
C343        C344   1.398       .  A
C343        H348   1.083       .  S
C344        C345   1.413       .  A
C344        H349   1.076       .  S
C345        C346   1.411       .  A
C346        H350   1.083       .  S
C351        C352   1.400       .  A
C351        C356   1.396       .  A
C351        H357   1.084       .  S
C352        C353   1.406       .  A
C353        C354   1.408       .  A
C353        H358   1.083       .  S
C354        C355   1.412       .  A
C354        H359   1.083       .  S
C355        C356   1.414       .  A
C356        H360   1.076       .  S
C361        C362   1.400       .  A
C361        C366   1.393       .  A
C361        H367   1.084       .  S
C362        C363   1.401       .  A
C363        C364   1.398       .  A
C363        H368   1.083       .  S
C364        C365   1.412       .  A
C364        H369   1.077       .  S
C365        C366   1.409       .  A
C366        H370   1.083       .  S
C371        C372   1.401       .  A
C371        C376   1.396       .  A
C371        H377   1.084       .  S
C372        C373   1.400       .  A
C373        C374   1.396       .  A
C373        H378   1.084       .  S
C374        C375   1.411       .  A
C374        H379   1.083       .  S
C375        C376   1.410       .  A
C376        H380   1.076       .  S
C381        C382   1.403       .  A
C381        C386   1.402       .  A
C381        H387   1.083       .  S
C382        C383   1.406       .  A
C383        C384   1.393       .  A
C383        H388   1.083       .  S
C384        C385   1.406       .  A
C384        H389   1.082       .  S
C385        C386   1.413       .  A
C386        H390   1.081       .  S
C391        C392   1.401       .  A
C391        C396   1.391       .  A
C391        H397   1.083       .  S
C392        C393   1.405       .  A
C393        C394   1.405       .  A
C393        H398   1.083       .  S
C394        C395   1.412       .  A
C394        H399   1.083       .  S
C395        C396   1.411       .  A
C396        H400   1.074       .  S
C401        C402   1.412       .  A
C401        C406   1.403       .  A
C401        H407   1.078       .  S
C402        C403   1.412       .  A
C403        C404   1.402       .  A
C403        H408   1.083       .  S
C404        C405   1.405       .  A
C404        H409   1.083       .  S
C405        C406   1.407       .  A
C406        H410   1.083       .  S
O411        C419   1.263       .  A
O411      Co1251   2.012       .  S
O412        C420   1.279       .  A
O412      Co1457   2.028   1_455  S
O413        C421   1.254       .  A
O414        C422   1.265       .  A
O415        C421   1.276       .  A
O415       Co637   2.053       .  S
O416        C422   1.298       .  A
O416       Co431   2.112       .  S
O417        C420   1.270       .  A
O417       Co639   1.977       .  S
O418        C419   1.254       .  A
O418       Co433   1.970   1_565  S
C419        C577   1.469       .  S
C420        C537   1.488       .  S
C421        C587   1.487       .  S
C422        C597   1.477       .  S
O423        C436   1.267       .  A
O423       Co636   1.890       .  S
O424        C437   1.256       .  A
O424       Co432   1.949       .  S
O425        C438   1.279       .  A
O425       Co638   2.026   1_564  S
O426        C439   1.261       .  A
O426       Co434   2.005   1_554  S
O427        C439   1.252       .  A
O427      Co1252   1.965   1_455  S
O428        C438   1.271       .  A
O428      Co1456   1.975       .  S
O429        C436   1.297       .  A
O430        C437   1.276       .  A
Co431      O1231   2.010   1_455  S
Co431       O628   1.888       .  S
Co431      O1453   1.977   1_455  S
Co431      O1255   2.017   1_465  S
Co432      O1437   2.030   1_554  S
Co432       O620   2.045   1_554  S
Co432      O1247   1.966       .  S
Co433       O630   2.027   1_545  S
Co433       O435   2.026       .  S
Co434       O622   1.977       .  S
Co434      O1050   2.009   1_456  S
O435      Co1251   2.023   1_545  S
O435      Co1049   2.016   1_545  S
C436        C547   1.481       .  S
C437        C557   1.486       .  S
C438        C610   1.485       .  S
C439        C567   1.467       .  S
C440        C441   1.564       .  S
C440        C446   1.546       .  S
C440        C444   1.560       .  S
C440        C540   1.540       .  S
C441        H448   1.085       .  S
C441        C442   1.378       .  D
C442        C443   1.540       .  S
C442        C493   1.529       .  S
C443        C447   1.531       .  S
C443        C445   1.536       .  S
C443        H449   1.042       .  S
C444        H450   1.078       .  S
C444        C445   1.364       .  D
C445        C454   1.519       .  S
C446        H451   1.084       .  S
C446        C447   1.362       .  D
C447        C483   1.511       .  S
C452        C453   1.553       .  S
C452        C458   1.546       .  S
C452        C456   1.557       .  S
C452        C600   1.527       .  S
C453        H460   1.084       .  S
C453        C454   1.370       .  D
C454        C455   1.538       .  S
C455        C459   1.541       .  S
C455        C457   1.539       .  S
C455        H461   1.047       .  S
C456        H462   1.079       .  S
C456        C457   1.363       .  D
C457        C526   1.516       .  S
C458        H463   1.085       .  S
C458        C459   1.365       .  D
C459        C471   1.516       .  S
C464        C465   1.558       .  S
C464        C470   1.547       .  S
C464        C468   1.556       .  S
C464        C550   1.531       .  S
C465        H472   1.084       .  S
C465        C466   1.372       .  D
C466        C467   1.536       .  S
C466        C517   1.522       .  S
C467        C471   1.536       .  S
C467        C469   1.538       .  S
C467        H473   1.044       .  S
C468        H474   1.082       .  S
C468        C469   1.364       .  D
C469        C478   1.515       .  S
C470        H475   1.085       .  S
C470        C471   1.367       .  D
C476        C477   1.551       .  S
C476        C482   1.551       .  S
C476        C480   1.541       .  S
C476        C570   1.522       .  S
C477        H484   1.084       .  S
C477        C478   1.372       .  D
C478        C479   1.537       .  S
C479        C483   1.540       .  S
C479        C481   1.539       .  S
C479        H485   1.053       .  S
C480        H486   1.084       .  S
C480        C481   1.358       .  D
C481        C502   1.506       .  S
C482        H487   1.079       .  S
C482        C483   1.365       .  D
C488        C489   1.548       .  S
C488        C494   1.558       .  S
C488        C492   1.557       .  S
C488        C590   1.537       .  S
C489        H496   1.084       .  S
C489        C490   1.366       .  D
C490        C491   1.531       .  S
C490        C529   1.509       .  S
C491        C495   1.534       .  S
C491        C493   1.547       .  S
C491        H497   1.045       .  S
C492        H498   1.085       .  S
C492        C493   1.373       .  D
C494        H499   1.079       .  S
C494        C495   1.364       .  D
C495        C507   1.517       .  S
C500        C501   1.548       .  S
C500        C506   1.554       .  S
C500        C504   1.556       .  S
C500        C560   1.534       .  S
C501        H508   1.080       .  S
C501        C502   1.366       .  D
C502        C503   1.529       .  S
C503        C507   1.535       .  S
C503        C505   1.547       .  S
C503        H509   1.047       .  S
C504        H510   1.085       .  S
C504        C505   1.372       .  D
C505        C514   1.529       .  S
C506        H511   1.084       .  S
C506        C507   1.365       .  D
C512        C513   1.563       .  S
C512        C518   1.545       .  S
C512        C516   1.560       .  S
C512        C607   1.537       .  S
C513        H520   1.085       .  S
C513        C514   1.377       .  D
C514        C515   1.539       .  S
C515        C519   1.532       .  S
C515        C517   1.540       .  S
C515        H521   1.043       .  S
C516        H522   1.079       .  S
C516        C517   1.365       .  D
C518        H523   1.084       .  S
C518        C519   1.361       .  D
C519        C531   1.510       .  S
C524        C525   1.553       .  S
C524        C530   1.551       .  S
C524        C528   1.541       .  S
C524        C580   1.527       .  S
C525        H532   1.084       .  S
C525        C526   1.374       .  D
C526        C527   1.536       .  S
C527        C531   1.536       .  S
C527        C529   1.540       .  S
C527        H533   1.053       .  S
C528        H534   1.084       .  S
C528        C529   1.360       .  D
C530        H535   1.077       .  S
C530        C531   1.365       .  D
C536        C537   1.407       .  A
C536        C541   1.406       .  A
C536        H542   1.083       .  S
C537        C538   1.402       .  A
C538        C539   1.398       .  A
C538        H543   1.083       .  S
C539        C540   1.413       .  A
C539        H544   1.075       .  S
C540        C541   1.412       .  A
C541        H545   1.083       .  S
C546        C547   1.405       .  A
C546        C551   1.401       .  A
C546        H552   1.083       .  S
C547        C548   1.403       .  A
C548        C549   1.397       .  A
C548        H553   1.083       .  S
C549        C550   1.411       .  A
C549        H554   1.080       .  S
C550        C551   1.409       .  A
C551        H555   1.082       .  S
C556        C557   1.407       .  A
C556        C561   1.393       .  A
C556        H562   1.083       .  S
C557        C558   1.403       .  A
C558        C559   1.406       .  A
C558        H563   1.083       .  S
C559        C560   1.416       .  A
C559        H564   1.080       .  S
C560        C561   1.405       .  A
C561        H565   1.083       .  S
C566        C567   1.400       .  A
C566        C571   1.393       .  A
C566        H572   1.084       .  S
C567        C568   1.402       .  A
C568        C569   1.394       .  A
C568        H573   1.083       .  S
C569        C570   1.409       .  A
C569        H574   1.078       .  S
C570        C571   1.410       .  A
C571        H575   1.083       .  S
C576        C577   1.400       .  A
C576        C581   1.397       .  A
C576        H582   1.084       .  S
C577        C578   1.400       .  A
C578        C579   1.396       .  A
C578        H583   1.084       .  S
C579        C580   1.409       .  A
C579        H584   1.083       .  S
C580        C581   1.413       .  A
C581        H585   1.076       .  S
C586        C587   1.405       .  A
C586        C591   1.406       .  A
C586        H592   1.083       .  S
C587        C588   1.406       .  A
C588        C589   1.394       .  A
C588        H593   1.083       .  S
C589        C590   1.408       .  A
C589        H594   1.078       .  S
C590        C591   1.413       .  A
C591        H595   1.083       .  S
C596        C597   1.402       .  A
C596        C601   1.392       .  A
C596        H602   1.083       .  S
C597        C598   1.403       .  A
C598        C599   1.400       .  A
C598        H603   1.083       .  S
C599        C600   1.410       .  A
C599        H604   1.083       .  S
C600        C601   1.409       .  A
C601        H605   1.076       .  S
C606        C607   1.412       .  A
C606        C611   1.399       .  A
C606        H612   1.076       .  S
C607        C608   1.412       .  A
C608        C609   1.402       .  A
C608        H613   1.083       .  S
C609        C610   1.405       .  A
C609        H614   1.083       .  S
C610        C611   1.404       .  A
C611        H615   1.083       .  S
O616        C624   1.261       .  A
O616      Co1456   2.007   1_556  S
O617        C625   1.279       .  A
O617      Co1252   2.029   1_456  S
O618        C626   1.254       .  A
O619        C627   1.266       .  A
O620        C626   1.275       .  A
O621        C627   1.298       .  A
O621       Co636   2.113   1_556  S
O622        C625   1.270       .  A
O623        C624   1.253       .  A
O623       Co638   1.963   1_565  S
C624        C782   1.467       .  S
C625        C742   1.490       .  S
C626        C792   1.483       .  S
C627        C802   1.483       .  S
O628        C641   1.265       .  A
O629        C642   1.255       .  A
O629       Co637   1.946       .  S
O630        C643   1.279       .  A
O631        C644   1.259       .  A
O631       Co639   2.002       .  S
O632        C644   1.254       .  A
O632      Co1457   1.971   1_455  S
O633        C643   1.270       .  A
O633      Co1251   1.973       .  S
O634        C641   1.299       .  A
O635        C642   1.276       .  A
Co636      O1436   2.010   1_454  S
Co636      O1248   1.974   1_455  S
Co636      O1460   2.016   1_464  S
Co637      O1232   2.029       .  S
Co637      O1452   1.968       .  S
Co638       O640   2.022       .  S
Co639       O845   2.016   1_455  S
O640      Co1456   2.018   1_546  S
O640       Co844   2.007   1_545  S
C641        C752   1.485       .  S
C642        C762   1.480       .  S
C643        C815   1.486       .  S
C644        C772   1.470       .  S
C645        C646   1.564       .  S
C645        C651   1.546       .  S
C645        C649   1.560       .  S
C645        C745   1.541       .  S
C646        H653   1.085       .  S
C646        C647   1.379       .  D
C647        C648   1.538       .  S
C647        C698   1.530       .  S
C648        C652   1.536       .  S
C648        C650   1.540       .  S
C648        H654   1.044       .  S
C649        H655   1.079       .  S
C649        C650   1.365       .  D
C650        C659   1.522       .  S
C651        H656   1.084       .  S
C651        C652   1.361       .  D
C652        C688   1.511       .  S
C657        C658   1.557       .  S
C657        C663   1.549       .  S
C657        C661   1.555       .  S
C657        C805   1.532       .  S
C658        H665   1.084       .  S
C658        C659   1.371       .  D
C659        C660   1.536       .  S
C660        C664   1.537       .  S
C660        C662   1.542       .  S
C660        H666   1.045       .  S
C661        H667   1.082       .  S
C661        C662   1.363       .  D
C662        C731   1.516       .  S
C663        H668   1.085       .  S
C663        C664   1.368       .  D
C664        C676   1.519       .  S
C669        C670   1.556       .  S
C669        C675   1.548       .  S
C669        C673   1.555       .  S
C669        C755   1.534       .  S
C670        H677   1.084       .  S
C670        C671   1.374       .  D
C671        C672   1.536       .  S
C671        C722   1.521       .  S
C672        C676   1.541       .  S
C672        C674   1.539       .  S
C672        H678   1.048       .  S
C673        H679   1.079       .  S
C673        C674   1.361       .  D
C674        C683   1.514       .  S
C675        H680   1.085       .  S
C675        C676   1.366       .  D
C681        C682   1.550       .  S
C681        C687   1.553       .  S
C681        C685   1.543       .  S
C681        C775   1.527       .  S
C682        H689   1.084       .  S
C682        C683   1.372       .  D
C683        C684   1.533       .  S
C684        C688   1.534       .  S
C684        C686   1.540       .  S
C684        H690   1.052       .  S
C685        H691   1.084       .  S
C685        C686   1.362       .  D
C686        C707   1.508       .  S
C687        H692   1.079       .  S
C687        C688   1.367       .  D
C693        C694   1.547       .  S
C693        C699   1.554       .  S
C693        C697   1.557       .  S
C693        C795   1.535       .  S
C694        H701   1.078       .  S
C694        C695   1.361       .  D
C695        C696   1.531       .  S
C695        C734   1.505       .  S
C696        C700   1.536       .  S
C696        C698   1.549       .  S
C696        H702   1.048       .  S
C697        H703   1.085       .  S
C697        C698   1.373       .  D
C699        H704   1.084       .  S
C699        C700   1.368       .  D
C700        C712   1.518       .  S
C705        C706   1.545       .  S
C705        C711   1.560       .  S
C705        C709   1.558       .  S
C705        C765   1.536       .  S
C706        H713   1.084       .  S
C706        C707   1.365       .  D
C707        C708   1.532       .  S
C708        C712   1.535       .  S
C708        C710   1.545       .  S
C708        H714   1.046       .  S
C709        H715   1.085       .  S
C709        C710   1.373       .  D
C710        C719   1.529       .  S
C711        H716   1.077       .  S
C711        C712   1.363       .  D
C717        C718   1.561       .  S
C717        C723   1.548       .  S
C717        C721   1.559       .  S
C717        C812   1.539       .  S
C718        H725   1.085       .  S
C718        C719   1.376       .  D
C719        C720   1.541       .  S
C720        C724   1.533       .  S
C720        C722   1.539       .  S
C720        H726   1.044       .  S
C721        H727   1.078       .  S
C721        C722   1.363       .  D
C723        H728   1.084       .  S
C723        C724   1.364       .  D
C724        C736   1.512       .  S
C729        C730   1.554       .  S
C729        C735   1.553       .  S
C729        C733   1.540       .  S
C729        C785   1.526       .  S
C730        H737   1.084       .  S
C730        C731   1.375       .  D
C731        C732   1.535       .  S
C732        C736   1.538       .  S
C732        C734   1.534       .  S
C732        H738   1.051       .  S
C733        H739   1.083       .  S
C733        C734   1.359       .  D
C735        H740   1.078       .  S
C735        C736   1.364       .  D
C741        C742   1.406       .  A
C741        C746   1.404       .  A
C741        H747   1.083       .  S
C742        C743   1.405       .  A
C743        C744   1.400       .  A
C743        H748   1.083       .  S
C744        C745   1.412       .  A
C744        H749   1.076       .  S
C745        C746   1.412       .  A
C746        H750   1.083       .  S
C751        C752   1.405       .  A
C751        C756   1.404       .  A
C751        H757   1.083       .  S
C752        C753   1.403       .  A
C753        C754   1.396       .  A
C753        H758   1.083       .  S
C754        C755   1.412       .  A
C754        H759   1.077       .  S
C755        C756   1.410       .  A
C756        H760   1.083       .  S
C761        C762   1.402       .  A
C761        C766   1.392       .  A
C761        H767   1.084       .  S
C762        C763   1.404       .  A
C763        C764   1.406       .  A
C763        H768   1.083       .  S
C764        C765   1.413       .  A
C764        H769   1.083       .  S
C765        C766   1.410       .  A
C766        H770   1.074       .  S
C771        C772   1.401       .  A
C771        C776   1.396       .  A
C771        H777   1.084       .  S
C772        C773   1.400       .  A
C773        C774   1.395       .  A
C773        H778   1.083       .  S
C774        C775   1.411       .  A
C774        H779   1.077       .  S
C775        C776   1.410       .  A
C776        H780   1.083       .  S
C781        C782   1.400       .  A
C781        C786   1.394       .  A
C781        H787   1.084       .  S
C782        C783   1.401       .  A
C783        C784   1.396       .  A
C783        H788   1.084       .  S
C784        C785   1.411       .  A
C784        H789   1.083       .  S
C785        C786   1.410       .  A
C786        H790   1.076       .  S
C791        C792   1.399       .  A
C791        C796   1.401       .  A
C791        H797   1.083       .  S
C792        C793   1.409       .  A
C793        C794   1.397       .  A
C793        H798   1.083       .  S
C794        C795   1.405       .  A
C794        H799   1.083       .  S
C795        C796   1.417       .  A
C796        H800   1.078       .  S
C801        C802   1.403       .  A
C801        C806   1.398       .  A
C801        H807   1.083       .  S
C802        C803   1.405       .  A
C803        C804   1.401       .  A
C803        H808   1.083       .  S
C804        C805   1.409       .  A
C804        H809   1.082       .  S
C805        C806   1.412       .  A
C806        H810   1.080       .  S
C811        C812   1.413       .  A
C811        C816   1.398       .  A
C811        H817   1.075       .  S
C812        C813   1.411       .  A
C813        C814   1.404       .  A
C813        H818   1.083       .  S
C814        C815   1.406       .  A
C814        H819   1.083       .  S
C815        C816   1.402       .  A
C816        H820   1.083       .  S
O821        C829   1.263       .  A
O822        C830   1.280       .  A
O823        C831   1.257       .  A
O823      Co1253   1.952       .  S
O824        C832   1.267       .  A
O824      Co1459   1.882       .  S
O825        C831   1.278       .  A
O825      Co1047   2.056       .  S
O826        C832   1.298       .  A
O826       Co841   2.112       .  S
O827        C830   1.270       .  A
O827      Co1049   1.970   1_545  S
O828        C829   1.252       .  A
O828       Co843   1.966       .  S
C829        C987   1.473       .  S
C830        C947   1.483       .  S
C831        C997   1.493       .  S
C832       C1007   1.479       .  S
O833        C846   1.266       .  A
O833      Co1046   1.886       .  S
O834        C847   1.258       .  A
O834       Co842   1.956       .  S
O835        C848   1.279       .  A
O835      Co1048   2.027   1_554  S
O836        C849   1.261       .  A
O836       Co844   1.997   1_544  S
O837        C849   1.253       .  A
O838        C848   1.273       .  A
O839        C846   1.297       .  A
O839      Co1254   2.107   1_554  S
O840        C847   1.275       .  A
O840      Co1458   2.045   1_554  S
Co841      O1038   1.896       .  S
Co842      O1030   2.043   1_554  S
Co842      O1460   2.030   1_554  S
Co843      O1233   1.948       .  S
Co843      O1040   2.027       .  S
Co843      O1455   2.052       .  S
Co843       O845   2.027       .  S
Co844      O1439   1.883       .  S
Co844      O1032   1.976   1_565  S
Co844      O1249   2.105   1_556  S
O845      Co1457   2.031       .  S
C846        C957   1.479       .  S
C847        C967   1.481       .  S
C848       C1020   1.493       .  S
C849        C977   1.462       .  S
C850        C851   1.565       .  S
C850        C856   1.542       .  S
C850        C854   1.558       .  S
C850        C950   1.536       .  S
C851        H858   1.085       .  S
C851        C852   1.379       .  D
C852        C853   1.541       .  S
C852        C903   1.531       .  S
C853        C857   1.532       .  S
C853        C855   1.538       .  S
C853        H859   1.043       .  S
C854        H860   1.079       .  S
C854        C855   1.364       .  D
C855        C864   1.520       .  S
C856        H861   1.084       .  S
C856        C857   1.361       .  D
C857        C893   1.509       .  S
C862        C863   1.555       .  S
C862        C868   1.546       .  S
C862        C866   1.557       .  S
C862       C1010   1.529       .  S
C863        H870   1.084       .  S
C863        C864   1.370       .  D
C864        C865   1.538       .  S
C865        C869   1.538       .  S
C865        C867   1.539       .  S
C865        H871   1.046       .  S
C866        H872   1.081       .  S
C866        C867   1.363       .  D
C867        C936   1.515       .  S
C868        H873   1.085       .  S
C868        C869   1.367       .  D
C869        C881   1.515       .  S
C874        C875   1.556       .  S
C874        C880   1.545       .  S
C874        C878   1.556       .  S
C874        C960   1.528       .  S
C875        H882   1.084       .  S
C875        C876   1.371       .  D
C876        C877   1.539       .  S
C876        C927   1.522       .  S
C877        C881   1.539       .  S
C877        C879   1.537       .  S
C877        H883   1.046       .  S
C878        H884   1.080       .  S
C878        C879   1.364       .  D
C879        C888   1.513       .  S
C880        H885   1.085       .  S
C880        C881   1.365       .  D
C886        C887   1.550       .  S
C886        C892   1.550       .  S
C886        C890   1.544       .  S
C886        C980   1.520       .  S
C887        H894   1.084       .  S
C887        C888   1.370       .  D
C888        C889   1.536       .  S
C889        C893   1.537       .  S
C889        C891   1.539       .  S
C889        H895   1.052       .  S
C890        H896   1.084       .  S
C890        C891   1.360       .  D
C891        C912   1.509       .  S
C892        H897   1.078       .  S
C892        C893   1.365       .  D
C898        C899   1.550       .  S
C898        C904   1.554       .  S
C898        C902   1.558       .  S
C898       C1000   1.541       .  S
C899        H906   1.081       .  S
C899        C900   1.366       .  D
C900        C901   1.531       .  S
C900        C939   1.509       .  S
C901        C905   1.534       .  S
C901        C903   1.548       .  S
C901        H907   1.048       .  S
C902        H908   1.085       .  S
C902        C903   1.375       .  D
C904        H909   1.083       .  S
C904        C905   1.366       .  D
C905        C917   1.518       .  S
C910        C911   1.546       .  S
C910        C916   1.558       .  S
C910        C914   1.560       .  S
C910        C970   1.539       .  S
C911        H918   1.084       .  S
C911        C912   1.366       .  D
C912        C913   1.533       .  S
C913        C917   1.534       .  S
C913        C915   1.547       .  S
C913        H919   1.047       .  S
C914        H920   1.085       .  S
C914        C915   1.374       .  D
C915        C924   1.531       .  S
C916        H921   1.075       .  S
C916        C917   1.362       .  D
C922        C923   1.563       .  S
C922        C928   1.547       .  S
C922        C926   1.561       .  S
C922       C1017   1.542       .  S
C923        H930   1.085       .  S
C923        C924   1.378       .  D
C924        C925   1.540       .  S
C925        C929   1.533       .  S
C925        C927   1.539       .  S
C925        H931   1.043       .  S
C926        H932   1.079       .  S
C926        C927   1.367       .  D
C928        H933   1.084       .  S
C928        C929   1.362       .  D
C929        C941   1.513       .  S
C934        C935   1.553       .  S
C934        C940   1.553       .  S
C934        C938   1.542       .  S
C934        C990   1.530       .  S
C935        H942   1.084       .  S
C935        C936   1.374       .  D
C936        C937   1.536       .  S
C937        C941   1.537       .  S
C937        C939   1.538       .  S
C937        H943   1.053       .  S
C938        H944   1.084       .  S
C938        C939   1.360       .  D
C940        H945   1.078       .  S
C940        C941   1.366       .  D
C946        C947   1.406       .  A
C946        C951   1.403       .  A
C946        H952   1.083       .  S
C947        C948   1.401       .  A
C948        C949   1.399       .  A
C948        H953   1.083       .  S
C949        C950   1.414       .  A
C949        H954   1.076       .  S
C950        C951   1.410       .  A
C951        H955   1.083       .  S
C956        C957   1.404       .  A
C956        C961   1.401       .  A
C956        H962   1.083       .  S
C957        C958   1.402       .  A
C958        C959   1.394       .  A
C958        H963   1.083       .  S
C959        C960   1.410       .  A
C959        H964   1.078       .  S
C960        C961   1.410       .  A
C961        H965   1.083       .  S
C966        C967   1.400       .  A
C966        C971   1.394       .  A
C966        H972   1.084       .  S
C967        C968   1.405       .  A
C968        C969   1.406       .  A
C968        H973   1.083       .  S
C969        C970   1.412       .  A
C969        H974   1.083       .  S
C970        C971   1.413       .  A
C971        H975   1.074       .  S
C976        C977   1.399       .  A
C976        C981   1.391       .  A
C976        H982   1.084       .  S
C977        C978   1.400       .  A
C978        C979   1.395       .  A
C978        H983   1.084       .  S
C979        C980   1.411       .  A
C979        H984   1.076       .  S
C980        C981   1.408       .  A
C981        H985   1.083       .  S
C986        C987   1.402       .  A
C986        C991   1.397       .  A
C986        H992   1.084       .  S
C987        C988   1.401       .  A
C988        C989   1.398       .  A
C988        H993   1.083       .  S
C989        C990   1.411       .  A
C989        H994   1.083       .  S
C990        C991   1.411       .  A
C991        H995   1.076       .  S
C996        C997   1.404       .  A
C996       C1001   1.407       .  A
C996       H1002   1.083       .  S
C997        C998   1.409       .  A
C998        C999   1.398       .  A
C998       H1003   1.083       .  S
C999       C1000   1.407       .  A
C999       H1004   1.082       .  S
C1000      C1001   1.416       .  A
C1001      H1005   1.080       .  S
C1006      C1007   1.402       .  A
C1006      C1011   1.394       .  A
C1006      H1012   1.083       .  S
C1007      C1008   1.405       .  A
C1008      C1009   1.402       .  A
C1008      H1013   1.083       .  S
C1009      C1010   1.410       .  A
C1009      H1014   1.083       .  S
C1010      C1011   1.410       .  A
C1011      H1015   1.078       .  S
C1016      C1017   1.411       .  A
C1016      C1021   1.401       .  A
C1016      H1022   1.077       .  S
C1017      C1018   1.413       .  A
C1018      C1019   1.405       .  A
C1018      H1023   1.083       .  S
C1019      C1020   1.406       .  A
C1019      H1024   1.083       .  S
C1020      C1021   1.406       .  A
C1021      H1025   1.083       .  S
O1026      C1034   1.261       .  A
O1027      C1035   1.281       .  A
O1028      C1036   1.255       .  A
O1028     Co1458   1.945       .  S
O1029      C1037   1.266       .  A
O1029     Co1254   1.889       .  S
O1030      C1036   1.274       .  A
O1031      C1037   1.298       .  A
O1031     Co1046   2.111   1_556  S
O1032      C1035   1.271       .  A
O1033      C1034   1.253       .  A
O1033     Co1048   1.965       .  S
C1034      C1192   1.468       .  S
C1035      C1152   1.494       .  S
C1036      C1202   1.480       .  S
C1037      C1212   1.483       .  S
O1038      C1051   1.268       .  A
O1039      C1052   1.255       .  A
O1039     Co1047   1.946       .  S
O1040      C1053   1.279       .  A
O1041      C1054   1.260       .  A
O1041     Co1049   2.002   1_545  S
O1042      C1054   1.254       .  A
O1043      C1053   1.271       .  A
O1044      C1051   1.298       .  A
O1044     Co1459   2.112       .  S
O1045      C1052   1.275       .  A
O1045     Co1253   2.045       .  S
Co1047     O1255   2.031       .  S
Co1048     O1438   1.949       .  S
Co1048     O1250   2.043   1_556  S
Co1048     O1050   2.020   1_556  S
Co1049     O1234   1.888       .  S
Co1049     O1454   2.108       .  S
O1050     Co1252   2.033       .  S
C1051      C1162   1.488       .  S
C1052      C1172   1.483       .  S
C1053      C1225   1.485       .  S
C1054      C1182   1.470       .  S
C1055      C1056   1.562       .  S
C1055      C1061   1.549       .  S
C1055      C1059   1.560       .  S
C1055      C1155   1.543       .  S
C1056      H1063   1.085       .  S
C1056      C1057   1.377       .  D
C1057      C1058   1.540       .  S
C1057      C1108   1.530       .  S
C1058      C1062   1.533       .  S
C1058      C1060   1.541       .  S
C1058      H1064   1.044       .  S
C1059      H1065   1.080       .  S
C1059      C1060   1.366       .  D
C1060      C1069   1.523       .  S
C1061      H1066   1.084       .  S
C1061      C1062   1.363       .  D
C1062      C1098   1.513       .  S
C1067      C1068   1.557       .  S
C1067      C1073   1.551       .  S
C1067      C1071   1.556       .  S
C1067      C1215   1.536       .  S
C1068      H1075   1.084       .  S
C1068      C1069   1.373       .  D
C1069      C1070   1.538       .  S
C1070      C1074   1.541       .  S
C1070      C1072   1.539       .  S
C1070      H1076   1.047       .  S
C1071      H1077   1.077       .  S
C1071      C1072   1.360       .  D
C1072      C1141   1.515       .  S
C1073      H1078   1.085       .  S
C1073      C1074   1.368       .  D
C1074      C1086   1.521       .  S
C1079      C1080   1.559       .  S
C1079      C1085   1.551       .  S
C1079      C1083   1.554       .  S
C1079      C1165   1.537       .  S
C1080      H1087   1.084       .  S
C1080      C1081   1.374       .  D
C1081      C1082   1.536       .  S
C1081      C1132   1.523       .  S
C1082      C1086   1.539       .  S
C1082      C1084   1.539       .  S
C1082      H1088   1.046       .  S
C1083      H1089   1.081       .  S
C1083      C1084   1.362       .  D
C1084      C1093   1.514       .  S
C1085      H1090   1.085       .  S
C1085      C1086   1.369       .  D
C1091      C1092   1.550       .  S
C1091      C1097   1.552       .  S
C1091      C1095   1.543       .  S
C1091      C1185   1.526       .  S
C1092      H1099   1.084       .  S
C1092      C1093   1.372       .  D
C1093      C1094   1.534       .  S
C1094      C1098   1.538       .  S
C1094      C1096   1.540       .  S
C1094      H1100   1.053       .  S
C1095      H1101   1.084       .  S
C1095      C1096   1.361       .  D
C1096      C1117   1.508       .  S
C1097      H1102   1.079       .  S
C1097      C1098   1.365       .  D
C1103      C1104   1.545       .  S
C1103      C1109   1.557       .  S
C1103      C1107   1.557       .  S
C1103      C1205   1.532       .  S
C1104      H1111   1.084       .  S
C1104      C1105   1.364       .  D
C1105      C1106   1.532       .  S
C1105      C1144   1.505       .  S
C1106      C1110   1.535       .  S
C1106      C1108   1.546       .  S
C1106      H1112   1.047       .  S
C1107      H1113   1.085       .  S
C1107      C1108   1.374       .  D
C1109      H1114   1.079       .  S
C1109      C1110   1.362       .  D
C1110      C1122   1.515       .  S
C1115      C1116   1.550       .  S
C1115      C1121   1.554       .  S
C1115      C1119   1.555       .  S
C1115      C1175   1.532       .  S
C1116      H1123   1.081       .  S
C1116      C1117   1.365       .  D
C1117      C1118   1.531       .  S
C1118      C1122   1.534       .  S
C1118      C1120   1.546       .  S
C1118      H1124   1.047       .  S
C1119      H1125   1.085       .  S
C1119      C1120   1.372       .  D
C1120      C1129   1.528       .  S
C1121      H1126   1.083       .  S
C1121      C1122   1.366       .  D
C1127      C1128   1.563       .  S
C1127      C1133   1.546       .  S
C1127      C1131   1.559       .  S
C1127      C1222   1.537       .  S
C1128      H1135   1.085       .  S
C1128      C1129   1.377       .  D
C1129      C1130   1.540       .  S
C1130      C1134   1.535       .  S
C1130      C1132   1.541       .  S
C1130      H1136   1.044       .  S
C1131      H1137   1.079       .  S
C1131      C1132   1.363       .  D
C1133      H1138   1.085       .  S
C1133      C1134   1.363       .  D
C1134      C1146   1.513       .  S
C1139      C1140   1.550       .  S
C1139      C1145   1.555       .  S
C1139      C1143   1.541       .  S
C1139      C1195   1.526       .  S
C1140      H1147   1.084       .  S
C1140      C1141   1.373       .  D
C1141      C1142   1.534       .  S
C1142      C1146   1.537       .  S
C1142      C1144   1.538       .  S
C1142      H1148   1.052       .  S
C1143      H1149   1.084       .  S
C1143      C1144   1.359       .  D
C1145      H1150   1.079       .  S
C1145      C1146   1.367       .  D
C1151      C1152   1.406       .  A
C1151      C1156   1.404       .  A
C1151      H1157   1.083       .  S
C1152      C1153   1.406       .  A
C1153      C1154   1.403       .  A
C1153      H1158   1.083       .  S
C1154      C1155   1.412       .  A
C1154      H1159   1.077       .  S
C1155      C1156   1.412       .  A
C1156      H1160   1.083       .  S
C1161      C1162   1.407       .  A
C1161      C1166   1.404       .  A
C1161      H1167   1.083       .  S
C1162      C1163   1.403       .  A
C1163      C1164   1.400       .  A
C1163      H1168   1.083       .  S
C1164      C1165   1.414       .  A
C1164      H1169   1.079       .  S
C1165      C1166   1.409       .  A
C1166      H1170   1.082       .  S
C1171      C1172   1.408       .  A
C1171      C1176   1.394       .  A
C1171      H1177   1.083       .  S
C1172      C1173   1.402       .  A
C1173      C1174   1.403       .  A
C1173      H1178   1.083       .  S
C1174      C1175   1.415       .  A
C1174      H1179   1.080       .  S
C1175      C1176   1.405       .  A
C1176      H1180   1.082       .  S
C1181      C1182   1.402       .  A
C1181      C1186   1.395       .  A
C1181      H1187   1.084       .  S
C1182      C1183   1.401       .  A
C1183      C1184   1.396       .  A
C1183      H1188   1.083       .  S
C1184      C1185   1.411       .  A
C1184      H1189   1.077       .  S
C1185      C1186   1.409       .  A
C1186      H1190   1.083       .  S
C1191      C1192   1.401       .  A
C1191      C1196   1.394       .  A
C1191      H1197   1.084       .  S
C1192      C1193   1.401       .  A
C1193      C1194   1.397       .  A
C1193      H1198   1.084       .  S
C1194      C1195   1.411       .  A
C1194      H1199   1.083       .  S
C1195      C1196   1.409       .  A
C1196      H1200   1.077       .  S
C1201      C1202   1.404       .  A
C1201      C1206   1.404       .  A
C1201      H1207   1.083       .  S
C1202      C1203   1.404       .  A
C1203      C1204   1.390       .  A
C1203      H1208   1.083       .  S
C1204      C1205   1.408       .  A
C1204      H1209   1.077       .  S
C1205      C1206   1.413       .  A
C1206      H1210   1.083       .  S
C1211      C1212   1.402       .  A
C1211      C1216   1.395       .  A
C1211      H1217   1.083       .  S
C1212      C1213   1.405       .  A
C1213      C1214   1.403       .  A
C1213      H1218   1.083       .  S
C1214      C1215   1.410       .  A
C1214      H1219   1.083       .  S
C1215      C1216   1.413       .  A
C1216      H1220   1.075       .  S
C1221      C1222   1.414       .  A
C1221      C1226   1.399       .  A
C1221      H1227   1.076       .  S
C1222      C1223   1.410       .  A
C1223      C1224   1.403       .  A
C1223      H1228   1.083       .  S
C1224      C1225   1.406       .  A
C1224      H1229   1.083       .  S
C1225      C1226   1.401       .  A
C1226      H1230   1.083       .  S
O1231      C1239   1.262       .  A
O1232      C1240   1.279       .  A
O1233      C1241   1.254       .  A
O1234      C1242   1.264       .  A
O1235      C1241   1.274       .  A
O1235     Co1457   2.049       .  S
O1236      C1242   1.298       .  A
O1236     Co1251   2.116       .  S
O1237      C1240   1.270       .  A
O1237     Co1459   1.976       .  S
O1238      C1239   1.254       .  A
O1238     Co1253   1.969   1_565  S
C1239      C1397   1.471       .  S
C1240      C1357   1.490       .  S
C1241      C1407   1.481       .  S
C1242      C1417   1.484       .  S
O1243      C1256   1.267       .  A
O1243     Co1456   1.894       .  S
O1244      C1257   1.255       .  A
O1244     Co1252   1.945       .  S
O1245      C1258   1.279       .  A
O1245     Co1458   2.028   1_564  S
O1246      C1259   1.261       .  A
O1246     Co1254   2.006   1_554  S
O1247      C1259   1.252       .  A
O1248      C1258   1.271       .  A
O1249      C1256   1.295       .  A
O1250      C1257   1.276       .  A
Co1251     O1448   1.894       .  S
Co1252     O1440   2.044   1_554  S
Co1253     O1450   2.027   1_545  S
Co1253     O1255   2.035       .  S
Co1254     O1442   1.972       .  S
C1256      C1367   1.480       .  S
C1257      C1377   1.479       .  S
C1258      C1430   1.487       .  S
C1259      C1387   1.467       .  S
C1260      C1261   1.563       .  S
C1260      C1266   1.547       .  S
C1260      C1264   1.560       .  S
C1260      C1360   1.541       .  S
C1261      H1268   1.085       .  S
C1261      C1262   1.378       .  D
C1262      C1263   1.541       .  S
C1262      C1313   1.531       .  S
C1263      C1267   1.532       .  S
C1263      C1265   1.537       .  S
C1263      H1269   1.043       .  S
C1264      H1270   1.078       .  S
C1264      C1265   1.364       .  D
C1265      C1274   1.520       .  S
C1266      H1271   1.084       .  S
C1266      C1267   1.362       .  D
C1267      C1303   1.510       .  S
C1272      C1273   1.553       .  S
C1272      C1278   1.548       .  S
C1272      C1276   1.559       .  S
C1272      C1420   1.532       .  S
C1273      H1280   1.084       .  S
C1273      C1274   1.370       .  D
C1274      C1275   1.538       .  S
C1275      C1279   1.543       .  S
C1275      C1277   1.539       .  S
C1275      H1281   1.047       .  S
C1276      H1282   1.080       .  S
C1276      C1277   1.366       .  D
C1277      C1346   1.518       .  S
C1278      H1283   1.085       .  S
C1278      C1279   1.365       .  D
C1279      C1291   1.519       .  S
C1284      C1285   1.557       .  S
C1284      C1290   1.550       .  S
C1284      C1288   1.553       .  S
C1284      C1370   1.530       .  S
C1285      H1292   1.084       .  S
C1285      C1286   1.370       .  D
C1286      C1287   1.538       .  S
C1286      C1337   1.520       .  S
C1287      C1291   1.536       .  S
C1287      C1289   1.539       .  S
C1287      H1293   1.045       .  S
C1288      H1294   1.082       .  S
C1288      C1289   1.361       .  D
C1289      C1298   1.512       .  S
C1290      H1295   1.085       .  S
C1290      C1291   1.370       .  D
C1296      C1297   1.550       .  S
C1296      C1302   1.550       .  S
C1296      C1300   1.542       .  S
C1296      C1390   1.523       .  S
C1297      H1304   1.084       .  S
C1297      C1298   1.372       .  D
C1298      C1299   1.535       .  S
C1299      C1303   1.539       .  S
C1299      C1301   1.536       .  S
C1299      H1305   1.053       .  S
C1300      H1306   1.084       .  S
C1300      C1301   1.359       .  D
C1301      C1322   1.506       .  S
C1302      H1307   1.079       .  S
C1302      C1303   1.365       .  D
C1308      C1309   1.547       .  S
C1308      C1314   1.558       .  S
C1308      C1312   1.560       .  S
C1308      C1410   1.536       .  S
C1309      H1316   1.084       .  S
C1309      C1310   1.366       .  D
C1310      C1311   1.531       .  S
C1310      C1349   1.510       .  S
C1311      C1315   1.535       .  S
C1311      C1313   1.547       .  S
C1311      H1317   1.045       .  S
C1312      H1318   1.085       .  S
C1312      C1313   1.374       .  D
C1314      H1319   1.076       .  S
C1314      C1315   1.362       .  D
C1315      C1327   1.516       .  S
C1320      C1321   1.549       .  S
C1320      C1326   1.551       .  S
C1320      C1324   1.556       .  S
C1320      C1380   1.532       .  S
C1321      H1328   1.076       .  S
C1321      C1322   1.363       .  D
C1322      C1323   1.530       .  S
C1323      C1327   1.534       .  S
C1323      C1325   1.547       .  S
C1323      H1329   1.047       .  S
C1324      H1330   1.085       .  S
C1324      C1325   1.371       .  D
C1325      C1334   1.526       .  S
C1326      H1331   1.084       .  S
C1326      C1327   1.367       .  D
C1332      C1333   1.560       .  S
C1332      C1338   1.548       .  S
C1332      C1336   1.560       .  S
C1332      C1427   1.538       .  S
C1333      H1340   1.085       .  S
C1333      C1334   1.376       .  D
C1334      C1335   1.538       .  S
C1335      C1339   1.533       .  S
C1335      C1337   1.538       .  S
C1335      H1341   1.043       .  S
C1336      H1342   1.079       .  S
C1336      C1337   1.366       .  D
C1338      H1343   1.084       .  S
C1338      C1339   1.362       .  D
C1339      C1351   1.513       .  S
C1344      C1345   1.553       .  S
C1344      C1350   1.554       .  S
C1344      C1348   1.542       .  S
C1344      C1400   1.528       .  S
C1345      H1352   1.084       .  S
C1345      C1346   1.373       .  D
C1346      C1347   1.538       .  S
C1347      C1351   1.537       .  S
C1347      C1349   1.541       .  S
C1347      H1353   1.052       .  S
C1348      H1354   1.084       .  S
C1348      C1349   1.360       .  D
C1350      H1355   1.078       .  S
C1350      C1351   1.365       .  D
C1356      C1357   1.407       .  A
C1356      C1361   1.405       .  A
C1356      H1362   1.083       .  S
C1357      C1358   1.404       .  A
C1358      C1359   1.399       .  A
C1358      H1363   1.083       .  S
C1359      C1360   1.413       .  A
C1359      H1364   1.075       .  S
C1360      C1361   1.412       .  A
C1361      H1365   1.083       .  S
C1366      C1367   1.405       .  A
C1366      C1371   1.401       .  A
C1366      H1372   1.083       .  S
C1367      C1368   1.401       .  A
C1368      C1369   1.397       .  A
C1368      H1373   1.083       .  S
C1369      C1370   1.412       .  A
C1369      H1374   1.080       .  S
C1370      C1371   1.409       .  A
C1371      H1375   1.082       .  S
C1376      C1377   1.407       .  A
C1376      C1381   1.395       .  A
C1376      H1382   1.083       .  S
C1377      C1378   1.398       .  A
C1378      C1379   1.401       .  A
C1378      H1383   1.083       .  S
C1379      C1380   1.417       .  A
C1379      H1384   1.076       .  S
C1380      C1381   1.405       .  A
C1381      H1385   1.083       .  S
C1386      C1387   1.400       .  A
C1386      C1391   1.393       .  A
C1386      H1392   1.084       .  S
C1387      C1388   1.402       .  A
C1388      C1389   1.396       .  A
C1388      H1393   1.083       .  S
C1389      C1390   1.410       .  A
C1389      H1394   1.077       .  S
C1390      C1391   1.409       .  A
C1391      H1395   1.083       .  S
C1396      C1397   1.400       .  A
C1396      C1401   1.395       .  A
C1396      H1402   1.084       .  S
C1397      C1398   1.402       .  A
C1398      C1399   1.398       .  A
C1398      H1403   1.084       .  S
C1399      C1400   1.411       .  A
C1399      H1404   1.083       .  S
C1400      C1401   1.411       .  A
C1401      H1405   1.076       .  S
C1406      C1407   1.404       .  A
C1406      C1411   1.405       .  A
C1406      H1412   1.083       .  S
C1407      C1408   1.402       .  A
C1408      C1409   1.393       .  A
C1408      H1413   1.084       .  S
C1409      C1410   1.411       .  A
C1409      H1414   1.074       .  S
C1410      C1411   1.412       .  A
C1411      H1415   1.083       .  S
C1416      C1417   1.405       .  A
C1416      C1421   1.397       .  A
C1416      H1422   1.083       .  S
C1417      C1418   1.404       .  A
C1418      C1419   1.402       .  A
C1418      H1423   1.083       .  S
C1419      C1420   1.411       .  A
C1419      H1424   1.083       .  S
C1420      C1421   1.410       .  A
C1421      H1425   1.077       .  S
C1426      C1427   1.412       .  A
C1426      C1431   1.399       .  A
C1426      H1432   1.077       .  S
C1427      C1428   1.411       .  A
C1428      C1429   1.402       .  A
C1428      H1433   1.083       .  S
C1429      C1430   1.405       .  A
C1429      H1434   1.083       .  S
C1430      C1431   1.404       .  A
C1431      H1435   1.083       .  S
O1436      C1444   1.263       .  A
O1437      C1445   1.280       .  A
O1438      C1446   1.255       .  A
O1439      C1447   1.266       .  A
O1440      C1446   1.274       .  A
O1441      C1447   1.298       .  A
O1441     Co1456   2.114   1_556  S
O1442      C1445   1.270       .  A
O1443      C1444   1.253       .  A
O1443     Co1458   1.964   1_565  S
C1444      C1602   1.472       .  S
C1445      C1562   1.487       .  S
C1446      C1612   1.485       .  S
C1447      C1622   1.481       .  S
O1448      C1461   1.268       .  A
O1449      C1462   1.256       .  A
O1449     Co1457   1.947       .  S
O1450      C1463   1.278       .  A
O1451      C1464   1.263       .  A
O1451     Co1459   2.007       .  S
O1452      C1464   1.254       .  A
O1453      C1463   1.271       .  A
O1454      C1461   1.298       .  A
O1455      C1462   1.276       .  A
Co1458     O1460   2.019       .  S
C1461      C1572   1.484       .  S
C1462      C1582   1.487       .  S
C1463      C1635   1.489       .  S
C1464      C1592   1.473       .  S
C1465      C1466   1.561       .  S
C1465      C1471   1.550       .  S
C1465      C1469   1.559       .  S
C1465      C1565   1.538       .  S
C1466      H1473   1.085       .  S
C1466      C1467   1.375       .  D
C1467      C1468   1.541       .  S
C1467      C1518   1.529       .  S
C1468      C1472   1.533       .  S
C1468      C1470   1.537       .  S
C1468      H1474   1.042       .  S
C1469      H1475   1.078       .  S
C1469      C1470   1.365       .  D
C1470      C1479   1.520       .  S
C1471      H1476   1.084       .  S
C1471      C1472   1.364       .  D
C1472      C1508   1.514       .  S
C1477      C1478   1.554       .  S
C1477      C1483   1.548       .  S
C1477      C1481   1.556       .  S
C1477      C1625   1.531       .  S
C1478      H1485   1.084       .  S
C1478      C1479   1.371       .  D
C1479      C1480   1.539       .  S
C1480      C1484   1.540       .  S
C1480      C1482   1.539       .  S
C1480      H1486   1.048       .  S
C1481      H1487   1.079       .  S
C1481      C1482   1.361       .  D
C1482      C1551   1.514       .  S
C1483      H1488   1.085       .  S
C1483      C1484   1.367       .  D
C1484      C1496   1.518       .  S
C1489      C1490   1.559       .  S
C1489      C1495   1.547       .  S
C1489      C1493   1.556       .  S
C1489      C1575   1.533       .  S
C1490      H1497   1.084       .  S
C1490      C1491   1.374       .  D
C1491      C1492   1.538       .  S
C1491      C1542   1.523       .  S
C1492      C1496   1.538       .  S
C1492      C1494   1.538       .  S
C1492      H1498   1.045       .  S
C1493      H1499   1.083       .  S
C1493      C1494   1.365       .  D
C1494      C1503   1.517       .  S
C1495      H1500   1.085       .  S
C1495      C1496   1.366       .  D
C1501      C1502   1.550       .  S
C1501      C1507   1.552       .  S
C1501      C1505   1.543       .  S
C1501      C1595   1.525       .  S
C1502      H1509   1.084       .  S
C1502      C1503   1.372       .  D
C1503      C1504   1.538       .  S
C1504      C1508   1.541       .  S
C1504      C1506   1.539       .  S
C1504      H1510   1.053       .  S
C1505      H1511   1.083       .  S
C1505      C1506   1.359       .  D
C1506      C1527   1.507       .  S
C1507      H1512   1.081       .  S
C1507      C1508   1.367       .  D
C1513      C1514   1.548       .  S
C1513      C1519   1.555       .  S
C1513      C1517   1.557       .  S
C1513      C1615   1.534       .  S
C1514      H1521   1.082       .  S
C1514      C1515   1.365       .  D
C1515      C1516   1.530       .  S
C1515      C1554   1.507       .  S
C1516      C1520   1.534       .  S
C1516      C1518   1.545       .  S
C1516      H1522   1.046       .  S
C1517      H1523   1.085       .  S
C1517      C1518   1.374       .  D
C1519      H1524   1.082       .  S
C1519      C1520   1.364       .  D
C1520      C1532   1.515       .  S
C1525      C1526   1.547       .  S
C1525      C1531   1.556       .  S
C1525      C1529   1.554       .  S
C1525      C1585   1.534       .  S
C1526      H1533   1.083       .  S
C1526      C1527   1.367       .  D
C1527      C1528   1.531       .  S
C1528      C1532   1.535       .  S
C1528      C1530   1.546       .  S
C1528      H1534   1.048       .  S
C1529      H1535   1.085       .  S
C1529      C1530   1.371       .  D
C1530      C1539   1.527       .  S
C1531      H1536   1.081       .  S
C1531      C1532   1.364       .  D
C1537      C1538   1.559       .  S
C1537      C1543   1.549       .  S
C1537      C1541   1.561       .  S
C1537      C1632   1.538       .  S
C1538      H1545   1.085       .  S
C1538      C1539   1.376       .  D
C1539      C1540   1.538       .  S
C1540      C1544   1.533       .  S
C1540      C1542   1.541       .  S
C1540      H1546   1.043       .  S
C1541      H1547   1.081       .  S
C1541      C1542   1.366       .  D
C1543      H1548   1.084       .  S
C1543      C1544   1.362       .  D
C1544      C1556   1.512       .  S
C1549      C1550   1.549       .  S
C1549      C1555   1.552       .  S
C1549      C1553   1.543       .  S
C1549      C1605   1.526       .  S
C1550      H1557   1.084       .  S
C1550      C1551   1.373       .  D
C1551      C1552   1.534       .  S
C1552      C1556   1.538       .  S
C1552      C1554   1.539       .  S
C1552      H1558   1.053       .  S
C1553      H1559   1.084       .  S
C1553      C1554   1.359       .  D
C1555      H1560   1.080       .  S
C1555      C1556   1.366       .  D
C1561      C1562   1.406       .  A
C1561      C1566   1.402       .  A
C1561      H1567   1.083       .  S
C1562      C1563   1.403       .  A
C1563      C1564   1.400       .  A
C1563      H1568   1.083       .  S
C1564      C1565   1.413       .  A
C1564      H1569   1.076       .  S
C1565      C1566   1.410       .  A
C1566      H1570   1.083       .  S
C1571      C1572   1.406       .  A
C1571      C1576   1.404       .  A
C1571      H1577   1.083       .  S
C1572      C1573   1.402       .  A
C1573      C1574   1.398       .  A
C1573      H1578   1.083       .  S
C1574      C1575   1.412       .  A
C1574      H1579   1.080       .  S
C1575      C1576   1.410       .  A
C1576      H1580   1.082       .  S
C1581      C1582   1.406       .  A
C1581      C1586   1.393       .  A
C1581      H1587   1.083       .  S
C1582      C1583   1.405       .  A
C1583      C1584   1.406       .  A
C1583      H1588   1.083       .  S
C1584      C1585   1.414       .  A
C1584      H1589   1.082       .  S
C1585      C1586   1.407       .  A
C1586      H1590   1.079       .  S
C1591      C1592   1.400       .  A
C1591      C1596   1.394       .  A
C1591      H1597   1.083       .  S
C1592      C1593   1.404       .  A
C1593      C1594   1.397       .  A
C1593      H1598   1.083       .  S
C1594      C1595   1.408       .  A
C1594      H1599   1.079       .  S
C1595      C1596   1.411       .  A
C1596      H1600   1.083       .  S
C1601      C1602   1.403       .  A
C1601      C1606   1.396       .  A
C1601      H1607   1.083       .  S
C1602      C1603   1.401       .  A
C1603      C1604   1.396       .  A
C1603      H1608   1.083       .  S
C1604      C1605   1.410       .  A
C1604      H1609   1.083       .  S
C1605      C1606   1.409       .  A
C1606      H1610   1.078       .  S
C1611      C1612   1.404       .  A
C1611      C1616   1.405       .  A
C1611      H1617   1.083       .  S
C1612      C1613   1.407       .  A
C1613      C1614   1.393       .  A
C1613      H1618   1.083       .  S
C1614      C1615   1.407       .  A
C1614      H1619   1.081       .  S
C1615      C1616   1.414       .  A
C1616      H1620   1.081       .  S
C1621      C1622   1.402       .  A
C1621      C1626   1.393       .  A
C1621      H1627   1.083       .  S
C1622      C1623   1.405       .  A
C1623      C1624   1.402       .  A
C1623      H1628   1.083       .  S
C1624      C1625   1.410       .  A
C1624      H1629   1.083       .  S
C1625      C1626   1.411       .  A
C1626      H1630   1.077       .  S
C1631      C1632   1.410       .  A
C1631      C1636   1.400       .  A
C1631      H1637   1.078       .  S
C1632      C1633   1.412       .  A
C1633      C1634   1.403       .  A
C1633      H1638   1.083       .  S
C1634      C1635   1.405       .  A
C1634      H1639   1.083       .  S
C1635      C1636   1.406       .  A
C1636      H1640   1.083       .  S
