geometry optimzed in LAMMPS
_audit_creation_date              2020-12-01 
_audit_creation_method            'lammps2cif' 
_symmetry_space_group_name_H-M    'P1' 
_symmetry_Int_Tables_number       1 
_symmetry_cell_setting            triclinic 
loop_ 
_symmetry_equiv_pos_as_xyz 
  x,y,z 
_cell_length_a                    36.24274094 
_cell_length_b                    34.11845723270773 
_cell_length_c                    36.57360341167488 
_cell_angle_alpha                 92.70115117059903 
_cell_angle_beta                  89.41313960147896 
_cell_angle_gamma                 89.97711012331797 
loop_ 
_atom_site_label 
_atom_site_type_symbol 
_atom_site_fract_x 
_atom_site_fract_y 
_atom_site_fract_z 
_atom_site_charge 
C1          C  0.20682683  0.20719112  0.20541366     0.86400
C2          C  0.23709417  0.23334582  0.18945754    -0.53800
C3          C  0.25508852  0.25701150  0.21468357     0.09300
C4          C  0.24174803  0.25126661  0.25424358     0.20300
C5          C  0.22770095  0.18392779  0.23397109    -0.54500
C6          C  0.24621648  0.20693769  0.25923818     0.09500
C7          C  0.18175019  0.23552385  0.22816471    -0.54100
C8          C  0.19969742  0.25890967  0.25360770     0.10000
H9          H  0.24360466  0.23323750  0.16040699     0.14500
H10         H  0.25646135  0.26950432  0.27529453     0.00300
H11         H  0.23021372  0.15230491  0.23347985     0.14800
H12         H  0.15227213  0.23761522  0.22356422     0.14600
C13         C  0.09113858  0.46910446  0.42941409     0.29900
C14         C  0.08999030  0.53679166  0.47428757     0.29900
C15         C  0.11608529  0.50267425  0.41850298    -0.06300
C16         C  0.05304296  0.48953544  0.43439109    -0.07000
C17         C  0.10158049  0.46443507  0.46963179    -0.06900
C18         C  0.11611336  0.53665937  0.44092957    -0.06300
C19         C  0.05274309  0.52389101  0.45728245    -0.07000
C20         C  0.10276410  0.49869534  0.49204145    -0.06900
C21         C  0.13871148  0.56298663  0.42402038    -0.32300
N22         N  0.15018901  0.54642164  0.39143570     0.14200
C23         C  0.13738828  0.50924378  0.38831601    -0.32300
H24         H  0.14086192  0.48960119  0.36440117     0.16100
C25         C  0.01644026  0.53509293  0.46244570    -0.31300
N26         N  0.99461039  0.50889890  0.44368094     0.12900
C27         C  0.01646118  0.48072909  0.42699280    -0.31300
C28         C  0.11843267  0.48810256  0.52447439    -0.31600
N29         N  0.12290013  0.44871834  0.52341997     0.13400
H30         H  0.12712794  0.50709556  0.54721465     0.16000
C31         C  0.11247492  0.43386839  0.49023796    -0.31600
H32         H  0.11388850  0.40315726  0.48149789     0.16000
H33         H  0.00638581  0.45482388  0.41216427     0.16000
H34         H  0.14459981  0.59281753  0.43325818     0.16100
H35         H  0.00667548  0.55998961  0.47924237     0.16100
C36         C  0.18714173  0.80689353  0.69343858     0.86400
C37         C  0.21305613  0.77636184  0.71006121    -0.53800
C38         C  0.23253029  0.75367029  0.68497055     0.09300
C39         C  0.22393297  0.76258696  0.64516560     0.20300
C40         C  0.21222989  0.82981871  0.66797713    -0.54500
C41         C  0.23208103  0.80694521  0.64303024     0.09500
C42         C  0.16273250  0.78191554  0.66744247    -0.54100
C43         C  0.18142219  0.75815036  0.64233591     0.10000
H44         H  0.21635765  0.77188889  0.73888406     0.14500
H45         H  0.23981256  0.74358900  0.62519947     0.00300
H46         H  0.21434852  0.86157339  0.67006146     0.14800
H47         H  0.13288207  0.78346226  0.66888045     0.14600
C48         C  0.45064547  0.13860253  0.43374436     0.29900
C49         C  0.51007331  0.13800167  0.47990991     0.29900
C50         C  0.44539789  0.16038550  0.47139526    -0.06300
C51         C  0.46295819  0.09725947  0.44559076    -0.07000
C52         C  0.48688893  0.15567239  0.41937411    -0.06900
C53         C  0.47562308  0.15985012  0.49489318    -0.06300
C54         C  0.49344853  0.09737691  0.46928095    -0.07000
C55         C  0.51663447  0.15546066  0.44274974    -0.06900
C56         C  0.46182547  0.16525043  0.53008033    -0.32300
N57         N  0.42488810  0.17077013  0.52871552     0.14200
C58         C  0.41444100  0.16687151  0.49326261    -0.32300
H59         H  0.38607885  0.16555355  0.48429590     0.16100
C60         C  0.49775224  0.05966994  0.48061463    -0.31300
N61         N  0.47191659  0.03671708  0.46424762     0.12900
C62         C  0.45018835  0.05877776  0.44332500    -0.31300
C63         C  0.54648349  0.17018152  0.42443426    -0.31600
N64         N  0.53561849  0.17980043  0.39055024     0.13400
H65         H  0.57435091  0.17255468  0.43465147     0.16000
C66         C  0.49926447  0.17066108  0.38704125    -0.31600
H67         H  0.48310555  0.17441534  0.36272312     0.16000
H68         H  0.42674852  0.04708669  0.42854146     0.16000
H69         H  0.47732039  0.16291157  0.55502848     0.16100
H70         H  0.51720550  0.04913914  0.50005016     0.16100
C71         C  0.76294635  0.25752379  0.15313422     0.86400
C72         C  0.78797737  0.28579695  0.17554121    -0.53800
C73         C  0.76957951  0.31319319  0.19732769     0.09300
C74         C  0.72716918  0.31013270  0.19429367     0.20300
C75         C  0.73685390  0.24017390  0.18177063    -0.54500
C76         C  0.71857126  0.26748748  0.20370333     0.09500
C77         C  0.73688615  0.28375985  0.13190790    -0.54100
C78         C  0.71844966  0.31139768  0.15313623     0.10000
H79         H  0.81783343  0.28300489  0.17555197     0.14500
H80         H  0.71207979  0.33244116  0.21174914     0.00300
H81         H  0.73115998  0.20911999  0.18327759     0.14800
H82         H  0.73186996  0.27964762  0.10276673     0.14600
C83         C  0.20231790  0.24715146  0.77999050     0.86400
C84         C  0.18360996  0.27071067  0.75007528    -0.53800
C85         C  0.20777433  0.29157408  0.72975940     0.09300
C86         C  0.24796430  0.28761415  0.74114472     0.20300
C87         C  0.23158208  0.22207824  0.75857384    -0.54500
C88         C  0.25565530  0.24338467  0.73843467     0.09500
C89         C  0.22431290  0.27823588  0.80242853    -0.54100
C90         C  0.24801360  0.29921313  0.78200683     0.10000
H91         H  0.15444086  0.27134103  0.74436873     0.14500
H92         H  0.26734778  0.30528412  0.72502637     0.00300
H93         H  0.23266011  0.19028564  0.75887534     0.14800
H94         H  0.22137402  0.28326136  0.83186657     0.14600
C95         C  0.86091242  0.52336033  0.47995938     0.29900
C96         C  0.86180155  0.47579149  0.41727967     0.29900
C97         C  0.83063622  0.53077816  0.45222470    -0.06300
C98         C  0.89677201  0.52585643  0.45614755    -0.07000
C99         C  0.85876435  0.47912265  0.48508763    -0.06900
C100        C  0.83136645  0.50692632  0.42029493    -0.06300
C101        C  0.89733251  0.50086632  0.42356991    -0.07000
C102        C  0.85905878  0.45515237  0.45344795    -0.06900
C103        C  0.81697697  0.52884770  0.39303116    -0.32300
N104        N  0.80643828  0.56444951  0.40732324     0.14200
C105        C  0.81533604  0.56604025  0.44322411    -0.32300
H106        H  0.81472506  0.59243356  0.46083102     0.16100
C107        C  0.93418434  0.49158702  0.41680622    -0.31300
N108        N  0.95561697  0.51097884  0.44182172     0.12900
C109        C  0.93331515  0.53034945  0.46653673    -0.31300
C110        C  0.85745340  0.41697768  0.46381251    -0.31600
N111        N  0.85608314  0.41729647  0.50088782     0.13400
H112        H  0.85682143  0.39088146  0.44581283     0.16000
C113        C  0.85717540  0.45508530  0.51417720    -0.31600
H114        H  0.85567929  0.46439100  0.54285324     0.16000
H115        H  0.94284630  0.54290322  0.49241439     0.16000
H116        H  0.81900311  0.52127155  0.36399874     0.16100
H117        H  0.94450879  0.46950957  0.39719327     0.16100
C118        C  0.75954653  0.83717534  0.20303028     0.86400
C119        C  0.73327886  0.81204912  0.17883503    -0.53800
C120        C  0.70751037  0.79203699  0.19789983     0.09300
C121        C  0.70975083  0.79885889  0.23934541     0.20300
C122        C  0.73369017  0.86379837  0.22752256    -0.54500
C123        C  0.70729491  0.84353064  0.24622079     0.09500
C124        C  0.77539567  0.80829829  0.23039452    -0.54100
C125        C  0.74928948  0.78821842  0.24903973     0.10000
H126        H  0.73553272  0.80953334  0.14917422     0.14500
H127        H  0.68867381  0.78199756  0.25424573     0.00300
H128        H  0.73587936  0.89552450  0.22965626     0.14800
H129        H  0.80438495  0.80448265  0.23609572     0.14600
C130        C  0.75475218  0.17454492  0.71678182     0.86400
C131        C  0.72792628  0.20437593  0.73545322    -0.53800
C132        C  0.70980262  0.22732319  0.71197455     0.09300
C133        C  0.72010980  0.21866818  0.67178353     0.20300
C134        C  0.73069508  0.15118103  0.68826454    -0.54500
C135        C  0.71262144  0.17481812  0.66485535     0.09500
C136        C  0.78017469  0.19889727  0.69259216    -0.54100
C137        C  0.76202228  0.22228050  0.66980854     0.10000
H138        H  0.72412547  0.20744353  0.76495417     0.14500
H139        H  0.70590775  0.23782235  0.65262381     0.00300
H140        H  0.72901236  0.11962604  0.68480739     0.14800
H141        H  0.81011357  0.19825860  0.69385243     0.14600
C142        C  0.45025711  0.89109246  0.48612135     0.29900
C143        C  0.51032912  0.89574822  0.43925008     0.29900
C144        C  0.44732803  0.86945342  0.44854400    -0.06300
C145        C  0.46088325  0.93318784  0.47521832    -0.07000
C146        C  0.48746711  0.87642154  0.50059708    -0.06900
C147        C  0.47783698  0.87038865  0.42558576    -0.06300
C148        C  0.49169380  0.93480481  0.45162323    -0.07000
C149        C  0.51792909  0.87746111  0.47667993    -0.06900
C150        C  0.46809805  0.85143482  0.39302247    -0.32300
N151        N  0.43170903  0.84177149  0.39448904     0.14200
C152        C  0.41884514  0.85323858  0.42840901    -0.32300
H153        H  0.39031846  0.85286825  0.43727973     0.16100
C154        C  0.49849330  0.97345142  0.44509936    -0.31300
N155        N  0.47272163  0.99551262  0.46330089     0.12900
C156        C  0.45005944  0.97205039  0.48229761    -0.31300
C157        C  0.54649785  0.85923728  0.49443840    -0.31600
N158        N  0.53490612  0.85001264  0.52831494     0.13400
H159        H  0.57360638  0.85162526  0.48397629     0.16000
C160        C  0.49907749  0.86057928  0.53259841    -0.31600
H161        H  0.48259100  0.85641221  0.55694602     0.16000
H162        H  0.42869595  0.98341491  0.50054693     0.16000
H163        H  0.48591422  0.84676411  0.36934861     0.16100
H164        H  0.52052220  0.98482050  0.42845183     0.16100
C165        C  0.20898629  0.76745878  0.14717791     0.86400
C166        C  0.19321416  0.73686209  0.17266005    -0.53800
C167        C  0.21901171  0.71218297  0.18562374     0.09300
C168        C  0.25821855  0.72012781  0.17221409     0.20300
C169        C  0.23883217  0.78803422  0.17148923    -0.54500
C170        C  0.26465455  0.76310248  0.18463527     0.09500
C171        C  0.23074476  0.74382348  0.11712907    -0.54100
C172        C  0.25689617  0.71953918  0.13032896     0.10000
H173        H  0.16474807  0.73676748  0.18220374     0.14500
H174        H  0.27877642  0.69922399  0.18233718     0.00300
H175        H  0.23721643  0.81846447  0.18119528     0.14800
H176        H  0.22678341  0.74726647  0.08806772     0.14600
C177        C  0.77491477  0.75641143  0.74351422     0.86400
C178        C  0.79720357  0.72830703  0.71760233    -0.53800
C179        C  0.77652998  0.70181438  0.69733946     0.09300
C180        C  0.73449596  0.70629661  0.70487679     0.20300
C181        C  0.74690095  0.77543208  0.71785835    -0.54500
C182        C  0.72614437  0.74931297  0.69743446     0.09500
C183        C  0.75042427  0.72990617  0.76654952    -0.54100
C184        C  0.72872580  0.70419793  0.74661543     0.10000
H185        H  0.82676638  0.73136774  0.71376490     0.14500
H186        H  0.71717536  0.68513536  0.68870713     0.00300
H187        H  0.74172345  0.80647486  0.71651742     0.14800
H188        H  0.74881368  0.73292483  0.79621977     0.14600
C189        C  0.51455263  0.48556744  0.05965214     0.29900
C190        C  0.45413283  0.53397409  0.05333405     0.29900
C191        C  0.52082669  0.52953411  0.06910871    -0.06300
C192        C  0.49852677  0.48747027  0.02062739    -0.07000
C193        C  0.48036676  0.47634386  0.08299188    -0.06900
C194        C  0.49012540  0.55395104  0.06712078    -0.06300
C195        C  0.46729406  0.51187885  0.01794980    -0.07000
C196        C  0.45008052  0.50108597  0.08065149    -0.06900
C197        C  0.50136846  0.59096706  0.07950523    -0.32300
N198        N  0.53806787  0.59002885  0.08614870     0.14200
C199        C  0.55026252  0.55277053  0.07975400    -0.32300
H200        H  0.57839834  0.54325129  0.08349182     0.16100
C201        C  0.46389313  0.52086435  0.98185304    -0.31300
N202        N  0.49195184  0.50367267  0.96257816     0.12900
C203        C  0.51391135  0.48441882  0.98560245    -0.31300
C204        C  0.42288736  0.48645108  0.10310548    -0.31600
N205        N  0.43483844  0.45224801  0.11652191     0.13400
H206        H  0.39575321  0.49866046  0.10821100     0.16000
C207        C  0.47024265  0.44632344  0.10496619    -0.31600
H208        H  0.48688177  0.42103104  0.11069541     0.16000
H209        H  0.53992070  0.47081293  0.97767360     0.16000
H210        H  0.48437659  0.61683653  0.08396212     0.16100
H211        H  0.44384074  0.54043168  0.97070391     0.16100
C212        C  0.51001420  0.54316248  0.83003645     0.29900
C213        C  0.45596359  0.48671096  0.83075420     0.29900
C214        C  0.51622438  0.50650373  0.80441536    -0.06300
C215        C  0.50305406  0.52438541  0.86776630    -0.07000
C216        C  0.47078239  0.55640126  0.82030932    -0.06900
C217        C  0.48879158  0.47757916  0.80492333    -0.06300
C218        C  0.47594558  0.49481336  0.86723954    -0.07000
C219        C  0.44392822  0.52747046  0.82012932    -0.06900
C220        C  0.50639993  0.44233388  0.79663934    -0.32300
N221        N  0.54229158  0.44898650  0.78902036     0.14200
C222        C  0.54882451  0.48777117  0.79430649    -0.32300
H223        H  0.57605582  0.50080932  0.79472844     0.16100
C224        C  0.47262108  0.48137246  0.90192527    -0.31300
N225        N  0.49510227  0.50281967  0.92419796     0.12900
C226        C  0.51309919  0.52975120  0.90436799    -0.31300
C227        C  0.41225630  0.54283958  0.80613592    -0.31600
N228        N  0.41871812  0.58072960  0.79875563     0.13400
H229        H  0.38679064  0.52724915  0.80041565     0.16000
C230        C  0.45420131  0.58958399  0.80750865    -0.31600
H231        H  0.46741199  0.61738277  0.80293967     0.16000
H232        H  0.52974120  0.55296263  0.91661017     0.16000
H233        H  0.49460227  0.41342347  0.79897767     0.16100
H234        H  0.45375790  0.45920158  0.91102693     0.16100
O235        O  0.02976529  0.06386380  0.00461827    -0.80200
O236        O  0.96041991  0.03493216  0.87136523    -0.80200
O237        O  0.06079773  0.02599984  0.92477129    -0.80200
O238        O  0.90964738  0.02815434  0.99132222    -0.80200
O239        O  0.01089864  0.06328945  0.92131617    -0.80300
O240        O  0.95560956  0.06808416  0.00161635    -0.80200
O241        O  0.92614710  0.04023414  0.92145771    -0.80200
O242        O  0.07061723  0.01767700  0.99725277    -0.80200
C243        C  0.06194646  0.05185531  0.00962499     1.09500
C244        C  0.93217190  0.04848326  0.88769655     1.09400
C245        C  0.04560683  0.05882216  0.91841836     1.09500
C246        C  0.92148338  0.06140393  0.00338844     1.09400
O247        O  0.95022048  0.99339033  0.03618764    -0.80200
O248        O  0.01781676  0.99161514  0.88120705    -0.80300
O249        O  0.03258984  0.94397313  0.99278520    -0.80200
O250        O  0.89595641  0.97038036  0.93444206    -0.80200
O251        O  0.94857425  0.96491752  0.90270005    -0.80200
O252        O  0.02455875  0.98739311  0.03890492    -0.80200
O253        O  0.94097382  0.95056700  0.99014762    -0.80200
O254        O  0.02982467  0.94593662  0.91790467    -0.80200
Co255      Co  0.99017576  0.02785003  0.01724091     1.51500
Co256      Co  0.97974124  0.01631257  0.91479716     1.51700
Co257      Co  0.04487878  0.98368296  0.95819449     1.51600
Co258      Co  0.93887167  0.99325809  0.95507766     1.51500
O259        O  0.99247412  0.00453349  0.96564997    -1.42100
C260        C  0.93780466  0.96055644  0.02396193     1.09400
C261        C  0.03128805  0.95832749  0.88602441     1.09500
C262        C  0.03442156  0.95310632  0.02662333     1.09400
C263        C  0.91471503  0.95375195  0.90839223     1.09400
C264        C  0.79959375  0.78443527  0.76729848    -0.19900
C265        C  0.82393769  0.76959632  0.79372574     0.36300
C266        C  0.84439631  0.79575419  0.81675019    -0.25900
C267        C  0.84161786  0.83643295  0.81400795     0.02700
C268        C  0.81884375  0.85147046  0.78714845     0.27500
C269        C  0.79849979  0.82560326  0.76405866    -0.25000
N270        N  0.82718419  0.72802515  0.79791501    -0.82400
H271        H  0.86237227  0.78438737  0.83725056     0.13300
C272        C  0.86170273  0.86346005  0.83996944     0.02700
N273        N  0.81680164  0.89318121  0.78310686    -0.81000
H274        H  0.78214797  0.83867006  0.74357216     0.18200
C275        C  0.89775417  0.87518282  0.83166737    -0.25800
C276        C  0.91639293  0.90330896  0.85417318     0.36200
C277        C  0.89801093  0.92108231  0.88522572    -0.19900
C278        C  0.86224462  0.90804340  0.89390775    -0.25100
C279        C  0.84411349  0.87929772  0.87184535     0.27600
H280        H  0.91127573  0.86251068  0.80732216     0.13300
N281        N  0.95366747  0.91392179  0.84523667    -0.82400
H282        H  0.84805025  0.92057224  0.91790466     0.18200
N283        N  0.80792617  0.86589791  0.88182256    -0.81000
H284        H  0.96238677  0.89947118  0.82081458     0.33800
H285        H  0.97046998  0.90349857  0.86570404     0.38300
H286        H  0.79909633  0.87984197  0.90643105     0.33800
H287        H  0.78946537  0.87417506  0.86182617     0.30500
H288        H  0.79930302  0.89969280  0.76165810     0.33800
H289        H  0.80482166  0.90593991  0.80688879     0.30500
H290        H  0.84115867  0.71599505  0.77492195     0.38300
H291        H  0.84374212  0.72230392  0.82028169     0.33800
C292        C  0.69767681  0.68200948  0.76325795    -0.19900
C293        C  0.67159379  0.70090934  0.78728092     0.36300
C294        C  0.64231209  0.67915671  0.80191625    -0.25900
C295        C  0.63763523  0.63933129  0.79195864     0.02700
C296        C  0.66311259  0.62062808  0.76742341     0.27500
C297        C  0.69289235  0.64211117  0.75338868    -0.25000
N298        N  0.67391956  0.74247770  0.79538194    -0.82400
H299        H  0.62212334  0.69366632  0.81994912     0.13300
C300        C  0.60394906  0.61838833  0.80418597     0.02700
N301        N  0.65814565  0.57999645  0.75638693    -0.81000
H302        H  0.71239358  0.62772668  0.73453097     0.18200
C303        C  0.57629567  0.61023793  0.77867720    -0.25800
C304        C  0.54539655  0.58769638  0.78738338     0.36200
C305        C  0.54084191  0.57325883  0.82304658    -0.19900
C306        C  0.56869116  0.58220633  0.84878392    -0.25100
C307        C  0.60003036  0.60466210  0.83976814     0.27600
H308        H  0.57936843  0.62033574  0.75114663     0.13300
N309        N  0.51985322  0.57738574  0.75886150    -0.82400
H310        H  0.56776758  0.56991586  0.87519845     0.18200
N311        N  0.62843167  0.61252662  0.86625057    -0.81000
H312        H  0.50971713  0.60327983  0.74849295     0.33800
H313        H  0.53423247  0.56208740  0.73775894     0.38300
H314        H  0.62149300  0.60050337  0.89117293     0.33800
H315        H  0.65239714  0.59817205  0.85669900     0.30500
H316        H  0.67892952  0.57062814  0.73795449     0.33800
H317        H  0.66105579  0.56362156  0.77963955     0.30500
H318        H  0.66986209  0.75649523  0.77091994     0.38300
H319        H  0.65257413  0.75184326  0.81317144     0.33800
C320        C  0.05254123  0.92440840  0.05025821    -0.19900
C321        C  0.06614530  0.93462963  0.08559747     0.36300
C322        C  0.08824537  0.90758384  0.10352037    -0.25900
C323        C  0.09834921  0.87131570  0.08642476     0.02700
C324        C  0.08419168  0.86087130  0.05155278     0.27500
C325        C  0.06072895  0.88688600  0.03450843    -0.25000
N326        N  0.05941363  0.97294278  0.10239842    -0.82400
H327        H  0.09883698  0.91541246  0.13047739     0.13300
C328        C  0.12580525  0.84568746  0.10384128     0.02700
N329        N  0.09511107  0.82467357  0.03270025    -0.81000
H330        H  0.05050568  0.87843323  0.00754957     0.18200
C331        C  0.11821806  0.80566415  0.10693651    -0.25800
C332        C  0.14502162  0.77964921  0.11918256     0.36200
C333        C  0.17955087  0.79441832  0.13174403    -0.19900
C334        C  0.18703010  0.83461278  0.12803423    -0.25100
C335        C  0.16078304  0.86017940  0.11417824     0.27600
H336        H  0.09150826  0.79439301  0.09855871     0.13300
N337        N  0.13725224  0.73827507  0.11839271    -0.82400
H338        H  0.21401144  0.84630161  0.13434948     0.18200
N339        N  0.17000119  0.90065561  0.10952511    -0.81000
H340        H  0.11051774  0.73252633  0.10910439     0.33800
H341        H  0.15522212  0.72446759  0.09932018     0.38300
H342        H  0.19665158  0.90684380  0.11880953     0.33800
H343        H  0.17013186  0.90522444  0.08145585     0.30500
H344        H  0.08225647  0.82139275  0.00726248     0.33800
H345        H  0.12344813  0.82625648  0.02736746     0.30500
H346        H  0.03126145  0.97502389  0.10859317     0.38300
H347        H  0.07314718  0.97632059  0.12733359     0.33800
C348        C  0.42067429  0.56105904  0.04788460    -0.19900
C349        C  0.38328932  0.54826950  0.04823624     0.36300
C350        C  0.35505500  0.57620038  0.05422858    -0.25900
C351        C  0.36275216  0.61657348  0.05488370     0.02700
C352        C  0.39831963  0.62861571  0.04427099     0.27500
C353        C  0.42665969  0.60064110  0.04020848    -0.25000
N354        N  0.37263977  0.50841312  0.03925542    -0.82400
H355        H  0.32715873  0.56614972  0.05899238     0.13300
C356        C  0.33522989  0.64567757  0.07018481     0.02700
N357        N  0.40566827  0.66932089  0.03866099    -0.81000
H358        H  0.45358694  0.61006561  0.03129753     0.18200
C359        C  0.34680208  0.67231165  0.09813903    -0.25800
C360        C  0.32203027  0.69827925  0.11620721     0.36200
C361        C  0.28424393  0.69679758  0.10727860    -0.19900
C362        C  0.27262867  0.67144306  0.07826100    -0.25100
C363        C  0.29786733  0.64596069  0.05940839     0.27600
H364        H  0.37536827  0.67225998  0.10659483     0.13300
N365        N  0.33517114  0.72611319  0.14381150    -0.82400
H366        H  0.24369609  0.67065194  0.07110071     0.18200
N367        N  0.28569728  0.62024197  0.02971618    -0.81000
H368        H  0.36358867  0.72309677  0.14745920     0.33800
H369        H  0.33098398  0.75415870  0.13427781     0.38300
H370        H  0.25749946  0.62404398  0.02525631     0.33800
H371        H  0.29940879  0.62848857  0.00599423     0.30500
H372        H  0.43328143  0.67337039  0.03122298     0.33800
H373        H  0.38979170  0.67744921  0.01653118     0.30500
H374        H  0.39533575  0.49038406  0.03324541     0.38300
H375        H  0.35779713  0.49741431  0.06114279     0.33800
C376        C  0.55787201  0.83352145  0.55547441    -0.19900
C377        C  0.56794626  0.79362358  0.55282225     0.36300
C378        C  0.59336366  0.77915330  0.57778830    -0.25900
C379        C  0.60913391  0.80404926  0.60503406     0.02700
C380        C  0.59801168  0.84376190  0.60836713     0.27500
C381        C  0.57245002  0.85808673  0.58350042    -0.25000
N382        N  0.55219020  0.76806425  0.52482061    -0.82400
H383        H  0.60181346  0.74867119  0.57530560     0.13300
C384        C  0.63883694  0.78886766  0.62844395     0.02700
N385        N  0.61307236  0.86939243  0.63674621    -0.81000
H386        H  0.56447154  0.88872449  0.58528824     0.18200
C387        C  0.67423158  0.80527460  0.62632684    -0.25800
C388        C  0.70314310  0.79203054  0.64779793     0.36200
C389        C  0.69677630  0.76195284  0.67227417    -0.19900
C390        C  0.66159533  0.74478290  0.67378316    -0.25100
C391        C  0.63246972  0.75810917  0.65224789     0.27600
H392        H  0.67953083  0.82838659  0.60762369     0.13300
N393        N  0.73919165  0.80866494  0.64406475    -0.82400
H394        H  0.65651273  0.72178102  0.69264408     0.18200
N395        N  0.59633240  0.74110050  0.65493736    -0.81000
H396        H  0.74768024  0.80436524  0.61676609     0.33800
H397        H  0.73720884  0.83887924  0.64999857     0.38300
H398        H  0.59622763  0.71883872  0.67362929     0.33800
H399        H  0.57848062  0.76296936  0.66556575     0.30500
H400        H  0.60221498  0.89767965  0.63536598     0.33800
H401        H  0.60445698  0.85896733  0.66186726     0.30500
H402        H  0.56162937  0.77723507  0.49951085     0.38300
H403        H  0.56175744  0.73937995  0.52705630     0.33800
C404        C  0.40973585  0.82773384  0.36370363    -0.19900
C405        C  0.37677193  0.80632380  0.36862343     0.36300
C406        C  0.35459991  0.79662224  0.33827511    -0.25900
C407        C  0.36575164  0.80493118  0.30255747     0.02700
C408        C  0.39969073  0.82426920  0.29732246     0.27500
C409        C  0.42068768  0.83631969  0.32788887    -0.25000
N410        N  0.36609652  0.79387703  0.40420014    -0.82400
H411        H  0.32838703  0.78224089  0.34259716     0.13300
C412        C  0.34132297  0.79349238  0.27123460     0.02700
N413        N  0.41285607  0.83144447  0.26101489    -0.81000
H414        H  0.44566308  0.85279743  0.32348934     0.18200
C415        C  0.33325606  0.82080236  0.24478361    -0.25800
C416        C  0.30987278  0.81115615  0.21524065     0.36200
C417        C  0.29181499  0.77444897  0.21362767    -0.19900
C418        C  0.29955731  0.74747010  0.24043005    -0.25100
C419        C  0.32508051  0.75589817  0.26816939     0.27600
H420        H  0.34527663  0.84984917  0.24710852     0.13300
N421        N  0.30489580  0.83827909  0.18679167    -0.82400
H422        H  0.28554701  0.71949749  0.24018331     0.18200
N423        N  0.33469646  0.72624728  0.29310686    -0.81000
H424        H  0.32027138  0.86380927  0.19210904     0.33800
H425        H  0.31557031  0.82513797  0.16253891     0.38300
H426        H  0.32012413  0.70029282  0.28721590     0.33800
H427        H  0.36263220  0.71963617  0.28893208     0.30500
H428        H  0.43816373  0.84619018  0.26194156     0.33800
H429        H  0.41774694  0.80422965  0.24753747     0.30500
H430        H  0.38617809  0.77428341  0.41250644     0.38300
H431        H  0.34120253  0.77838523  0.40301806     0.33800
C432        C  0.90594519  0.07264514  0.86773685    -0.19900
C433        C  0.91775520  0.09485729  0.83812331     0.36300
C434        C  0.89134537  0.11147592  0.81567002    -0.25900
C435        C  0.85346785  0.10710517  0.82265723     0.02700
C436        C  0.84171373  0.08702706  0.85350905     0.27500
C437        C  0.86809527  0.06983273  0.87569210    -0.25000
N438        N  0.95646048  0.10020938  0.83082843    -0.82400
H439        H  0.90028993  0.12748050  0.79226047     0.13300
C440        C  0.82655298  0.12393158  0.79739478     0.02700
N441        N  0.80303652  0.08396876  0.86195328    -0.81000
H442        H  0.85900146  0.05294764  0.89847020     0.18200
C443        C  0.80083774  0.09944991  0.77916724    -0.25800
C444        C  0.77570464  0.11430671  0.75405141     0.36200
C445        C  0.77759595  0.15444584  0.74570762    -0.19900
C446        C  0.80211678  0.17896891  0.76607115    -0.25100
C447        C  0.82661397  0.16425196  0.79135299     0.27600
H448        H  0.80031222  0.06854244  0.78473593     0.13300
N449        N  0.74772051  0.08900090  0.73869676    -0.82400
H450        H  0.80256950  0.21016667  0.76169944     0.18200
N451        N  0.85165670  0.19012389  0.81091630    -0.81000
H452        H  0.72229280  0.09941348  0.74889046     0.33800
H453        H  0.75055573  0.06051154  0.74761863     0.38300
H454        H  0.84848090  0.21898867  0.80301581     0.33800
H455        H  0.84452294  0.19006051  0.83867504     0.30500
H456        H  0.79897984  0.06812686  0.88545254     0.33800
H457        H  0.79316617  0.11232644  0.86814751     0.30500
H458        H  0.96751512  0.11614543  0.85325473     0.38300
H459        H  0.96041970  0.11726484  0.80809928     0.33800
C460        C  0.56942001  0.41940918  0.78013318    -0.19900
C461        C  0.57219910  0.38572358  0.80086915     0.36300
C462        C  0.59663930  0.35569434  0.78934471    -0.25900
C463        C  0.61844911  0.35907161  0.75786308     0.02700
C464        C  0.61689542  0.39333721  0.73795695     0.27500
C465        C  0.59229251  0.42335988  0.74938158    -0.25000
N466        N  0.55031014  0.38232813  0.83354966    -0.82400
H467        H  0.59849547  0.32935692  0.80468124     0.13300
C468        C  0.64228212  0.32591914  0.74586434     0.02700
N469        N  0.63989992  0.39713207  0.70607504    -0.81000
H470        H  0.59009817  0.44947338  0.73380120     0.18200
C471        C  0.63073626  0.30052745  0.71705430    -0.25800
C472        C  0.65162886  0.26723823  0.70628198     0.36200
C473        C  0.68507941  0.25998529  0.72430087    -0.19900
C474        C  0.69636060  0.28549238  0.75329600    -0.25100
C475        C  0.67521683  0.31845626  0.76426659     0.27600
H476        H  0.60495447  0.30631759  0.70353885     0.13300
N477        N  0.63856352  0.24039343  0.67783157    -0.82400
H478        H  0.72222888  0.28023189  0.76682160     0.18200
N479        N  0.68698246  0.34448963  0.79392093    -0.81000
H480        H  0.61372553  0.25027150  0.66724300     0.33800
H481        H  0.63273397  0.21384844  0.68978902     0.38300
H482        H  0.71169391  0.33464496  0.80479201     0.33800
H483        H  0.69259681  0.37172602  0.78312959     0.30500
H484        H  0.63519888  0.42407886  0.69443802     0.33800
H485        H  0.66733421  0.39741609  0.71465118     0.30500
H486        H  0.55847439  0.40469188  0.85227081     0.38300
H487        H  0.55570813  0.35578168  0.84562208     0.33800
C488        C  0.91535782  0.93716659  0.04924713    -0.19900
C489        C  0.92489633  0.93525364  0.08650087     0.36300
C490        C  0.89962171  0.91979597  0.11148949    -0.25900
C491        C  0.86487295  0.90600416  0.10018307     0.02700
C492        C  0.85564577  0.90702920  0.06276450     0.27500
C493        C  0.88104407  0.92239743  0.03768617    -0.25000
N494        N  0.96021883  0.94926958  0.09883394    -0.82400
H495        H  0.90687184  0.91892676  0.14011267     0.13300
C496        C  0.83892106  0.88977358  0.12774415     0.02700
N497        N  0.82034624  0.89287547  0.05044258    -0.81000
H498        H  0.87334380  0.92447252  0.00928851     0.18200
C499        C  0.80325041  0.90535781  0.13253661    -0.25800
C500        C  0.77779771  0.88951932  0.15723690     0.36200
C501        C  0.78817448  0.85814136  0.17908662    -0.19900
C502        C  0.82419377  0.84268512  0.17378718    -0.25100
C503        C  0.84939352  0.85806168  0.14865990     0.27600
H504        H  0.79479584  0.92962082  0.11645892     0.13300
N505        N  0.74098809  0.90477994  0.15911749    -0.82400
H506        H  0.83273465  0.81693488  0.18736198     0.18200
N507        N  0.88529724  0.84057242  0.14335703    -0.81000
H508        H  0.74245521  0.93476525  0.16626077     0.33800
H509        H  0.72952127  0.90153562  0.13302912     0.38300
H510        H  0.88901487  0.81761170  0.16089705     0.33800
H511        H  0.88655475  0.82818556  0.11666589     0.30500
H512        H  0.81763137  0.89613578  0.02231858     0.33800
H513        H  0.81937832  0.86276678  0.05451193     0.30500
H514        H  0.98017470  0.93096369  0.08624126     0.38300
H515        H  0.96281999  0.94637631  0.12703549     0.33800
C516        C  0.68094650  0.76421267  0.18074508    -0.19900
C517        C  0.65557888  0.77611273  0.15461590     0.36300
C518        C  0.63042039  0.74885487  0.13939756    -0.25900
C519        C  0.63032730  0.70994519  0.15005592     0.02700
C520        C  0.65535604  0.69802968  0.17660695     0.27500
C521        C  0.68038271  0.72544336  0.19188070    -0.25000
N522        N  0.65477908  0.81602369  0.14418502    -0.82400
H523        H  0.61102396  0.75798775  0.11910485     0.13300
C524        C  0.60493863  0.68138921  0.13222423     0.02700
N525        N  0.65561713  0.65803773  0.18738131    -0.81000
H526        H  0.69982981  0.71648567  0.21221682     0.18200
C527        C  0.61734152  0.65923769  0.10131275    -0.25800
C528        C  0.59492516  0.63012195  0.08469704     0.36200
C529        C  0.55996655  0.62241347  0.10004111    -0.19900
C530        C  0.54693758  0.64588512  0.12999303    -0.25100
C531        C  0.56915426  0.67546552  0.14626683     0.27600
H532        H  0.64464825  0.66463115  0.09029304     0.13300
N533        N  0.60723605  0.60856817  0.05213479    -0.82400
H534        H  0.51984386  0.64023260  0.14133580     0.18200
N535        N  0.55567717  0.69937745  0.17696287    -0.81000
H536        H  0.63344459  0.61800457  0.04419920     0.33800
H537        H  0.58929536  0.61519843  0.03107639     0.38300
H538        H  0.52858380  0.69165467  0.18351781     0.33800
H539        H  0.57171699  0.69333476  0.19962340     0.30500
H540        H  0.67612558  0.65395934  0.20674954     0.33800
H541        H  0.63041771  0.65269399  0.20037091     0.30500
H542        H  0.65892677  0.81618562  0.11586291     0.38300
H543        H  0.62846375  0.82730379  0.15016516     0.33800
C544        C  0.67852080  0.86130928  0.27134415    -0.19900
C545        C  0.68687553  0.89006338  0.29906984     0.36300
C546        C  0.65941331  0.90183928  0.32491443    -0.25900
C547        C  0.62426452  0.88438857  0.32453056     0.02700
C548        C  0.61579207  0.85615123  0.29640809     0.27500
C549        C  0.64273417  0.84550796  0.26986863    -0.25000
N550        N  0.72351359  0.90591487  0.30195957    -0.82400
H551        H  0.66583998  0.92374482  0.34630168     0.13300
C552        C  0.59719857  0.89384986  0.35474762     0.02700
N553        N  0.58027657  0.83732975  0.29564844    -0.81000
H554        H  0.63608674  0.82363234  0.24850683     0.18200
C555        C  0.56178150  0.90696181  0.34648337    -0.25800
C556        C  0.53395245  0.91118422  0.37340702     0.36200
C557        C  0.54124308  0.90041130  0.41010046    -0.19900
C558        C  0.57841480  0.89385909  0.41879212    -0.25100
C559        C  0.60601454  0.88879405  0.39163823     0.27600
H560        H  0.55545582  0.91348006  0.31850372     0.13300
N561        N  0.49943412  0.92740764  0.36205925    -0.82400
H562        H  0.58668565  0.89365824  0.44676592     0.18200
N563        N  0.64276943  0.87768253  0.40141788    -0.81000
H564        H  0.48833744  0.90864252  0.34159887     0.33800
H565        H  0.47994121  0.93028506  0.38299722     0.38300
H566        H  0.64475502  0.87522628  0.42972404     0.33800
H567        H  0.64787246  0.84970670  0.38954286     0.30500
H568        H  0.57845465  0.81729240  0.27320854     0.33800
H569        H  0.57794496  0.82103396  0.31906942     0.30500
H570        H  0.74123951  0.88300632  0.30807647     0.38300
H571        H  0.72503877  0.92665427  0.32387476     0.33800
C572        C  0.85385010  0.54909653  0.51531180    -0.19900
C573        C  0.82078924  0.54385903  0.53582499     0.36300
C574        C  0.81187799  0.56921238  0.56590603    -0.25900
C575        C  0.83426631  0.60118463  0.57602280     0.02700
C576        C  0.86701282  0.60729121  0.55578285     0.27500
C577        C  0.87643179  0.58133720  0.52567186    -0.25000
N578        N  0.79495117  0.51375219  0.52513638    -0.82400
H579        H  0.78642553  0.56452821  0.58090745     0.13300
C580        C  0.82116541  0.62901999  0.60632962     0.02700
N581        N  0.88989686  0.64059275  0.56506350    -0.81000
H582        H  0.90028381  0.58797429  0.50924595     0.18200
C583        C  0.84088288  0.63328289  0.63912085    -0.25800
C584        C  0.82708606  0.65653452  0.66929835     0.36200
C585        C  0.79260602  0.67595093  0.66670308    -0.19900
C586        C  0.77347170  0.67215439  0.63349750    -0.25100
C587        C  0.78752640  0.64944132  0.60332306     0.27600
H588        H  0.86671012  0.61763620  0.64145771     0.13300
N589        N  0.84772216  0.65982116  0.70265173    -0.82400
H590        H  0.74775708  0.68783843  0.63064435     0.18200
N591        N  0.76790450  0.64727319  0.56932476    -0.81000
H592        H  0.87249833  0.64420170  0.69993622     0.33800
H593        H  0.83219968  0.64671075  0.72299006     0.38300
H594        H  0.74372362  0.66398849  0.57142162     0.33800
H595        H  0.78459310  0.66005194  0.54966626     0.30500
H596        H  0.91289016  0.64111353  0.54760174     0.33800
H597        H  0.87457847  0.66585884  0.56053756     0.30500
H598        H  0.76985211  0.52712924  0.51937060     0.38300
H599        H  0.79067146  0.49602833  0.54735504     0.33800
C600        C  0.78104004  0.24862614  0.64519563    -0.19900
C601        C  0.77225320  0.28884840  0.64603658     0.36300
C602        C  0.78883213  0.31264544  0.62048467    -0.25900
C603        C  0.81429954  0.29699658  0.59474697     0.02700
C604        C  0.82443935  0.25718383  0.59485909     0.27500
C605        C  0.80752499  0.23318018  0.62024484    -0.25000
N606        N  0.74686910  0.30534503  0.67303372    -0.82400
H607        H  0.78179546  0.34352847  0.62041626     0.13300
C608        C  0.82903935  0.32321719  0.56752824     0.02700
N609        N  0.85200470  0.24156516  0.56964291    -0.81000
H610        H  0.81437704  0.20225032  0.62013479     0.18200
C611        C  0.85831095  0.34816971  0.57732098    -0.25800
C612        C  0.86866221  0.37862571  0.55491626     0.36200
C613        C  0.84932520  0.38383866  0.52224971    -0.19900
C614        C  0.82107118  0.35767623  0.51178821    -0.25100
C615        C  0.81037579  0.32759129  0.53441990     0.27600
H616        H  0.87205493  0.34477503  0.60316417     0.13300
N617        N  0.89815931  0.40477600  0.56543065    -0.82400
H618        H  0.80602929  0.36217294  0.48688936     0.18200
N619        N  0.77917873  0.30314945  0.52521242    -0.81000
H620        H  0.91915966  0.40110089  0.54575382     0.33800
H621        H  0.90931238  0.39714250  0.59036867     0.38300
H622        H  0.76768666  0.31115111  0.50053503     0.33800
H623        H  0.78866929  0.27438623  0.52085370     0.30500
H624        H  0.85666629  0.21187596  0.57389574     0.33800
H625        H  0.84168280  0.24293349  0.54318232     0.30500
H626        H  0.75877945  0.30257200  0.69869845     0.38300
H627        H  0.74336424  0.33540327  0.66977872     0.33800
C628        C  0.79631617  0.59747227  0.38638921    -0.19900
C629        C  0.77259606  0.59290590  0.35614996     0.36300
C630        C  0.76501761  0.62510482  0.33496369    -0.25900
C631        C  0.78029319  0.66199908  0.34384163     0.02700
C632        C  0.80322745  0.66708224  0.37449687     0.27500
C633        C  0.81112395  0.63473616  0.39542803    -0.25000
N634        N  0.75569463  0.55579123  0.34727131    -0.82400
H635        H  0.74714840  0.62133142  0.31147605     0.13300
C636        C  0.77313040  0.69482263  0.32002631     0.02700
N637        N  0.81868119  0.70497763  0.38392388    -0.81000
H638        H  0.82976264  0.63845639  0.41824909     0.18200
C639        C  0.74738390  0.72371381  0.33112475    -0.25800
C640        C  0.73985247  0.75519867  0.30889767     0.36200
C641        C  0.75828548  0.75736658  0.27480816    -0.19900
C642        C  0.78456799  0.72869071  0.26418318    -0.25100
C643        C  0.79230609  0.69750403  0.28659230     0.27600
H644        H  0.73320850  0.72162370  0.35719522     0.13300
N645        N  0.71398432  0.78513481  0.32101117    -0.82400
H646        H  0.79859197  0.73023195  0.23798348     0.18200
N647        N  0.81936336  0.66835723  0.27554501    -0.81000
H648        H  0.70273307  0.77902638  0.34655643     0.33800
H649        H  0.72860622  0.81140567  0.32463142     0.38300
H650        H  0.83082801  0.67442782  0.25007202     0.33800
H651        H  0.84087636  0.67038780  0.29436194     0.30500
H652        H  0.83470137  0.70384674  0.40747981     0.33800
H653        H  0.83656478  0.71223050  0.36269312     0.30500
H654        H  0.76326343  0.54715980  0.32041647     0.38300
H655        H  0.72707829  0.55964488  0.34814243     0.33800
C656        C  0.17775569  0.22273591  0.80447820    -0.19900
C657        C  0.19391753  0.20166759  0.83270648     0.36300
C658        C  0.17196138  0.17860297  0.85484414    -0.25900
C659        C  0.13400433  0.17506055  0.84906781     0.02700
C660        C  0.11729328  0.19634466  0.82165846     0.27500
C661        C  0.13915179  0.22026939  0.79998261    -0.25000
N662        N  0.23291854  0.20318283  0.83871593    -0.82400
H663        H  0.18485711  0.16232290  0.87603036     0.13300
C664        C  0.11278251  0.14600884  0.86939395     0.02700
N665        N  0.07831587  0.19267033  0.81523466    -0.81000
H666        H  0.12534311  0.23580900  0.77921805     0.18200
C667        C  0.08208717  0.15800084  0.89079795    -0.25800
C668        C  0.05975033  0.13039606  0.90789825     0.36200
C669        C  0.06871864  0.09008275  0.90351938    -0.19900
C670        C  0.10034055  0.07855562  0.88325918    -0.25100
C671        C  0.12228400  0.10597198  0.86597461     0.27600
H672        H  0.07528355  0.18893585  0.89365605     0.13300
N673        N  0.02877675  0.14329326  0.93022746    -0.82400
H674        H  0.10734164  0.04771681  0.87972781     0.18200
N675        N  0.15370836  0.09321282  0.84418306    -0.81000
H676        H  0.02834276  0.17393550  0.93330650     0.33800
H677        H  0.00479976  0.13544376  0.91609312     0.38300
H678        H  0.15714159  0.06282245  0.84483584     0.33800
H679        H  0.14832074  0.09928921  0.81700032     0.30500
H680        H  0.07014921  0.21051807  0.79428409     0.33800
H681        H  0.07321597  0.16373739  0.80600750     0.30500
H682        H  0.23730055  0.21363012  0.86565853     0.38300
H683        H  0.24332212  0.17460498  0.83586933     0.33800
C684        C  0.42368898  0.45758741  0.82931832    -0.19900
C685        C  0.39449101  0.45944847  0.85566529     0.36300
C686        C  0.36467379  0.43323951  0.85202125    -0.25900
C687        C  0.36229459  0.40684780  0.82179528     0.02700
C688        C  0.38989152  0.40601191  0.79463207     0.27500
C689        C  0.41971480  0.43182310  0.79824047    -0.25000
N690        N  0.39434462  0.48861608  0.88534816    -0.82400
H691        H  0.34246493  0.43430999  0.87211209     0.13300
C692        C  0.32953684  0.38184771  0.81706125     0.02700
N693        N  0.38688413  0.37959613  0.76293638    -0.81000
H694        H  0.43883797  0.43271655  0.77550562     0.18200
C695        C  0.30259734  0.39267934  0.79228441    -0.25800
C696        C  0.27413815  0.36682089  0.78237956     0.36200
C697        C  0.27277111  0.32966787  0.79739647    -0.19900
C698        C  0.29826502  0.31982810  0.82403162    -0.25100
C699        C  0.32702552  0.34564543  0.83385915     0.27600
H700        H  0.30450499  0.42070439  0.77960585     0.13300
N701        N  0.24690840  0.37806792  0.75673907    -0.82400
H702        H  0.29704409  0.29109691  0.83542359     0.18200
N703        N  0.35439606  0.33479284  0.85969326    -0.81000
H704        H  0.23394635  0.40359872  0.76731441     0.33800
H705        H  0.26038958  0.38467856  0.73238770     0.38300
H706        H  0.34838728  0.30725707  0.86963755     0.33800
H707        H  0.37962152  0.33196748  0.84568243     0.30500
H708        H  0.40932339  0.38288837  0.74514936     0.33800
H709        H  0.38829243  0.35096207  0.77184261     0.30500
H710        H  0.39106269  0.51606315  0.87436537     0.38300
H711        H  0.37169247  0.48485106  0.90277642     0.33800
C712        C  0.78506688  0.22733106  0.12903976    -0.19900
C713        C  0.80146482  0.23754079  0.09533397     0.36300
C714        C  0.81987939  0.20874935  0.07314224    -0.25900
C715        C  0.82475790  0.17060267  0.08469765     0.02700
C716        C  0.81184399  0.16110892  0.11959014     0.27500
C717        C  0.79205735  0.18931672  0.14124470    -0.25000
N718        N  0.80016762  0.27728506  0.08397031    -0.82400
H719        H  0.83185236  0.21648250  0.04718476     0.13300
C720        C  0.84849716  0.14302117  0.06242448     0.02700
N721        N  0.82055495  0.12357023  0.13366294    -0.81000
H722        H  0.78354918  0.18163869  0.16836152     0.18200
C723        C  0.88669159  0.14704606  0.06542435    -0.25800
C724        C  0.91097138  0.12211022  0.04525824     0.36200
C725        C  0.89662393  0.09126101  0.02202578    -0.19900
C726        C  0.85808712  0.08787853  0.01850811    -0.25100
C727        C  0.83387494  0.11380044  0.03815889     0.27600
H728        H  0.89763234  0.17006038  0.08366994     0.13300
N729        N  0.95010781  0.12773610  0.04914889    -0.82400
H730        H  0.84681302  0.06493193  0.00043598     0.18200
N731        N  0.79467616  0.11110458  0.03301716    -0.81000
H732        H  0.95575799  0.14955504  0.06935930     0.33800
H733        H  0.96009086  0.13836078  0.02458949     0.38300
H734        H  0.78846901  0.08865270  0.01359584     0.33800
H735        H  0.78263531  0.10320972  0.05765656     0.30500
H736        H  0.81015755  0.12157097  0.16028416     0.33800
H737        H  0.80712783  0.10198831  0.11757818     0.30500
H738        H  0.81552976  0.29455219  0.10259900     0.38300
H739        H  0.81297073  0.27963929  0.05840906     0.33800
C740        C  0.68941826  0.33642472  0.13770232    -0.19900
C741        C  0.69827277  0.37258666  0.12278002     0.36300
C742        C  0.67015506  0.39513803  0.10760475    -0.25900
C743        C  0.63348876  0.38174864  0.10621155     0.02700
C744        C  0.62485497  0.34498760  0.12031409     0.27500
C745        C  0.65294168  0.32268387  0.13590533    -0.25000
N746        N  0.73573432  0.38635686  0.12338234    -0.82400
H747        H  0.67675693  0.42340888  0.09692526     0.13300
C748        C  0.60400637  0.40810458  0.09299790     0.02700
N749        N  0.58754123  0.33075721  0.11919347    -0.81000
H750        H  0.64641005  0.29446419  0.14674991     0.18200
C751        C  0.58423646  0.39819310  0.06101390    -0.25800
C752        C  0.55538426  0.42237522  0.04896551     0.36200
C753        C  0.54711476  0.45836023  0.06849649    -0.19900
C754        C  0.56565955  0.46621727  0.10184968    -0.25100
C755        C  0.59427139  0.44232427  0.11372291     0.27600
H756        H  0.59079926  0.37097704  0.04588334     0.13300
N757        N  0.53341460  0.40918901  0.01836316    -0.82400
H758        H  0.55708365  0.49078893  0.11967906     0.18200
N759        N  0.61299846  0.45225096  0.14738726    -0.81000
H760        H  0.54322856  0.38239964  0.00708049     0.33800
H761        H  0.50677737  0.40396548  0.02822965     0.38300
H762        H  0.60293836  0.47862564  0.15930492     0.33800
H763        H  0.60691563  0.43045194  0.16569426     0.30500
H764        H  0.58583058  0.30318468  0.13043770     0.33800
H765        H  0.57141812  0.34981528  0.13590185     0.30500
H766        H  0.75153666  0.36682529  0.10682768     0.38300
H767        H  0.73764734  0.41367440  0.11170039     0.33800
C768        C  0.78873413  0.33803946  0.22610618    -0.19900
C769        C  0.78310526  0.37888462  0.23017674     0.36300
C770        C  0.80030282  0.40075991  0.25893245    -0.25900
C771        C  0.82290806  0.38243644  0.28407650     0.02700
C772        C  0.82879678  0.34161620  0.27994017     0.27500
C773        C  0.81200667  0.31994141  0.25084477    -0.25000
N774        N  0.76004380  0.39826125  0.20511412    -0.82400
H775        H  0.79508227  0.43200612  0.26232188     0.13300
C776        C  0.83539303  0.40491631  0.31765480     0.02700
N777        N  0.85047611  0.32211531  0.30631348    -0.81000
H778        H  0.81603867  0.28846054  0.24821299     0.18200
C779        C  0.81192643  0.40617718  0.34814099    -0.25800
C780        C  0.82113609  0.42747333  0.38041364     0.36200
C781        C  0.85498991  0.44851384  0.38309151    -0.19900
C782        C  0.87868890  0.44704317  0.35221183    -0.25100
C783        C  0.86944677  0.42497254  0.31974584     0.27600
H784        H  0.78571731  0.39089699  0.34669396     0.13300
N785        N  0.79497249  0.42894988  0.41012014    -0.82400
H786        H  0.90361384  0.46424300  0.35244447     0.18200
N787        N  0.89400654  0.42372351  0.28862307    -0.81000
H788        H  0.78972550  0.40023720  0.41751570     0.33800
H789        H  0.77033692  0.44074747  0.40082289     0.38300
H790        H  0.91776571  0.44014945  0.29441939     0.33800
H791        H  0.90266145  0.39467926  0.28395633     0.30500
H792        H  0.85143197  0.29191260  0.29997135     0.33800
H793        H  0.87753844  0.33235374  0.30429241     0.30500
H794        H  0.73878409  0.41239268  0.22010271     0.38300
H795        H  0.77582339  0.41971005  0.19275045     0.33800
C796        C  0.68825427  0.16112780  0.63457697    -0.19900
C797        C  0.65705189  0.13756675  0.64077985     0.36300
C798        C  0.63106824  0.13158160  0.61272540    -0.25900
C799        C  0.63540135  0.14941954  0.57915829     0.02700
C800        C  0.66716674  0.17180931  0.57251631     0.27500
C801        C  0.69339737  0.17724694  0.60024694    -0.25000
N802        N  0.65098312  0.12139623  0.67593219    -0.82400
H803        H  0.60647245  0.11445927  0.61757298     0.13300
C804        C  0.60528746  0.14652105  0.55215339     0.02700
N805        N  0.67204405  0.18978865  0.53802561    -0.81000
H806        H  0.71740678  0.19534195  0.59553840     0.18200
C807        C  0.58376368  0.17967183  0.54641385    -0.25800
C808        C  0.55373952  0.17762187  0.52251515     0.36200
C809        C  0.54408560  0.14133897  0.50456305    -0.19900
C810        C  0.56851097  0.10952963  0.50747288    -0.25100
C811        C  0.59816852  0.11131686  0.53199541     0.27600
H812        H  0.59012308  0.20728629  0.56085133     0.13300
N813        N  0.53350636  0.21271644  0.51621956    -0.82400
H814        H  0.56565501  0.08362272  0.48978174     0.18200
N815        N  0.62123181  0.07762510  0.53641325    -0.81000
H816        H  0.55182045  0.23320124  0.50583685     0.33800
H817        H  0.52336963  0.22410743  0.54139819     0.38300
H818        H  0.61206834  0.05377508  0.51994681     0.33800
H819        H  0.64771240  0.08449299  0.52710643     0.30500
H820        H  0.69668184  0.20573005  0.53769434     0.33800
H821        H  0.67462861  0.16729337  0.51774870     0.30500
H822        H  0.64728262  0.14471142  0.69517927     0.38300
H823        H  0.62653290  0.10511650  0.67599043     0.33800
C824        C  0.28374981  0.22595355  0.71259711    -0.19900
C825        C  0.31907072  0.24302118  0.70942119     0.36300
C826        C  0.34233315  0.23100638  0.68000066    -0.25900
C827        C  0.33128336  0.20174951  0.65425037     0.02700
C828        C  0.29706422  0.18288906  0.65866841     0.27500
C829        C  0.27357834  0.19515248  0.68789297    -0.25000
N830        N  0.33095790  0.27281157  0.73582767    -0.82400
H831        H  0.36890997  0.24500652  0.67665636     0.13300
C832        C  0.35472930  0.19317328  0.62142386     0.02700
N833        N  0.28593271  0.15218286  0.63286015    -0.81000
H834        H  0.24646284  0.18209335  0.69020166     0.18200
C835        C  0.37736437  0.15979041  0.61954245    -0.25800
C836        C  0.40029942  0.15150173  0.58883282     0.36200
C837        C  0.40060215  0.17724603  0.55974908    -0.19900
C838        C  0.37740328  0.21017552  0.56139859    -0.25100
C839        C  0.35443913  0.21843544  0.59200989     0.27600
H840        H  0.37714334  0.14030589  0.64209780     0.13300
N841        N  0.42297334  0.11690442  0.58675424    -0.82400
H842        H  0.37775443  0.22973833  0.53891195     0.18200
N843        N  0.33097570  0.25247776  0.59357679    -0.81000
H844        H  0.41942138  0.10090395  0.61022203     0.33800
H845        H  0.41376602  0.09901869  0.56470208     0.38300
H846        H  0.33425410  0.26822463  0.56990823     0.33800
H847        H  0.30364047  0.24272442  0.59389675     0.30500
H848        H  0.26008779  0.14118340  0.64008913     0.33800
H849        H  0.28284231  0.16456414  0.60745297     0.30500
H850        H  0.33238413  0.26002233  0.76120204     0.38300
H851        H  0.35758109  0.28238578  0.72957618     0.33800
C852        C  0.55922172  0.19519673  0.36268905    -0.19900
C853        C  0.58544826  0.22466466  0.37158533     0.36300
C854        C  0.60999899  0.23696497  0.34450183    -0.25900
C855        C  0.60848080  0.22090639  0.30865397     0.02700
C856        C  0.58163521  0.19243353  0.29923233     0.27500
C857        C  0.55710568  0.17990863  0.32639423    -0.25000
N858        N  0.58682429  0.24218054  0.40804587    -0.82400
H859        H  0.63061871  0.25903239  0.35135365     0.13300
C860        C  0.63631594  0.23326447  0.28176580     0.02700
N861        N  0.58017207  0.17563817  0.26247528    -0.81000
H862        H  0.53700083  0.15733023  0.31955692     0.18200
C863        C  0.66986716  0.21298824  0.27886746    -0.25800
C864        C  0.69777324  0.22464353  0.25477270     0.36200
C865        C  0.69131575  0.25643602  0.23213601    -0.19900
C866        C  0.65796829  0.27729831  0.23588831    -0.25100
C867        C  0.63048666  0.26618933  0.26076037     0.27600
H868        H  0.67446671  0.18840130  0.29598556     0.13300
N869        N  0.73285343  0.20488200  0.25381568    -0.82400
H870        H  0.65298282  0.30186909  0.21891014     0.18200
N871        N  0.59692813  0.28845141  0.26518577    -0.81000
H872        H  0.73305383  0.18232450  0.27219615     0.33800
H873        H  0.75276572  0.22522385  0.26278265     0.38300
H874        H  0.59724914  0.31227986  0.24823339     0.33800
H875        H  0.57514164  0.27040092  0.25643359     0.30500
H876        H  0.55915243  0.15467902  0.26019540     0.33800
H877        H  0.57309760  0.19796065  0.24525168     0.30500
H878        H  0.56188980  0.25699020  0.41307339     0.38300
H879        H  0.60772355  0.26325738  0.41010374     0.33800
C880        C  0.16462937  0.83371334  0.72069705    -0.19900
C881        C  0.13657326  0.85878980  0.70830647     0.36300
C882        C  0.11393326  0.88029287  0.73362965    -0.25900
C883        C  0.11907906  0.87820220  0.77147134     0.02700
C884        C  0.14866083  0.85584415  0.78397668     0.27500
C885        C  0.17098887  0.83416726  0.75875532    -0.25000
N886        N  0.13062768  0.86219831  0.66991985    -0.82400
H887        H  0.09178812  0.89812264  0.72364113     0.13300
C888        C  0.09354675  0.89886353  0.79829414     0.02700
N889        N  0.15602374  0.85535303  0.82254096    -0.81000
H890        H  0.19369632  0.81844259  0.76973911     0.18200
C891        C  0.07615747  0.87710248  0.82522818    -0.25800
C892        C  0.05592902  0.89550063  0.85427389     0.36200
C893        C  0.05126607  0.93665632  0.85549429    -0.19900
C894        C  0.06712818  0.95823874  0.82738879    -0.25100
C895        C  0.08871994  0.93991747  0.79922706     0.27600
H896        H  0.07961770  0.84552225  0.82429643     0.13300
N897        N  0.04015135  0.87237593  0.88231598    -0.82400
H898        H  0.06399076  0.98986226  0.82822645     0.18200
N899        N  0.10666490  0.96296132  0.77234570    -0.81000
H900        H  0.04371991  0.84245369  0.87571781     0.33800
H901        H  0.05519668  0.87819479  0.90618618     0.38300
H902        H  0.10035948  0.99271824  0.77693015     0.33800
H903        H  0.13513582  0.96027408  0.77581111     0.30500
H904        H  0.17845411  0.83718228  0.82755211     0.33800
H905        H  0.16358156  0.88378164  0.83141889     0.30500
H906        H  0.13379734  0.89167674  0.66392583     0.38300
H907        H  0.10338272  0.85409108  0.66427547     0.33800
C908        C  0.25991736  0.72404182  0.69627013    -0.19900
C909        C  0.29714557  0.72506381  0.68448363     0.36300
C910        C  0.32288843  0.69914810  0.69898932    -0.25900
C911        C  0.31224899  0.67279378  0.72543437     0.02700
C912        C  0.27487867  0.67069866  0.73616994     0.27500
C913        C  0.24912682  0.69644958  0.72162466    -0.25000
N914        N  0.30908702  0.75368396  0.65934760    -0.82400
H915        H  0.35167524  0.70064129  0.69087287     0.13300
C916        C  0.34074918  0.64932950  0.74352021     0.02700
N917        N  0.26343132  0.64274111  0.76220332    -0.81000
H918        H  0.22053556  0.69543165  0.73049333     0.18200
C919        C  0.34891182  0.65828145  0.78044829    -0.25800
C920        C  0.37539362  0.63660438  0.79884397     0.36200
C921        C  0.39353682  0.60514439  0.78008392    -0.19900
C922        C  0.38548893  0.59614154  0.74320658    -0.25100
C923        C  0.35944341  0.61818718  0.72457301     0.27600
H924        H  0.33452316  0.68227654  0.79488676     0.13300
N925        N  0.38315119  0.64546587  0.83677259    -0.82400
H926        H  0.39953469  0.57169272  0.72913365     0.18200
N927        N  0.35165285  0.60893720  0.68669644    -0.81000
H928        H  0.36688407  0.66896915  0.84686350     0.33800
H929        H  0.41054747  0.65484455  0.83847151     0.38300
H930        H  0.36791000  0.58536411  0.67676398     0.33800
H931        H  0.32421311  0.59963710  0.68508375     0.30500
H932        H  0.23505222  0.64499315  0.76734331     0.33800
H933        H  0.26803865  0.61470989  0.75023326     0.30500
H934        H  0.30637061  0.78125076  0.67282199     0.38300
H935        H  0.33712776  0.75016094  0.65305384     0.33800
C936        C  0.26172650  0.82275903  0.61902287    -0.19900
C937        C  0.28715591  0.85134200  0.63235118     0.36300
C938        C  0.31610593  0.86356835  0.60974654    -0.25900
C939        C  0.32082671  0.84749347  0.57403788     0.02700
C940        C  0.29550428  0.81906573  0.56045012     0.27500
C941        C  0.26628705  0.80702688  0.58306547    -0.25000
N942        N  0.28493958  0.86668862  0.66943562    -0.82400
H943        H  0.33574446  0.88494992  0.62057987     0.13300
C944        C  0.35326173  0.85958498  0.55182701     0.02700
N945        N  0.29965458  0.80247803  0.52377248    -0.81000
H946        H  0.24699787  0.78526796  0.57250127     0.18200
C947        C  0.37931939  0.83139340  0.54011224    -0.25800
C948        C  0.41028759  0.84145674  0.51924072     0.36200
C949        C  0.41671732  0.88114259  0.51046682    -0.19900
C950        C  0.38983646  0.90908501  0.52177170    -0.25100
C951        C  0.35832632  0.89876479  0.54223530     0.27600
H952        H  0.37544479  0.80108629  0.54695098     0.13300
N953        N  0.43462981  0.81072859  0.50595198    -0.82400
H954        H  0.39192962  0.93864781  0.51356123     0.18200
N955        N  0.33091657  0.92777973  0.55259597    -0.81000
H956        H  0.41934111  0.79066249  0.48980057     0.33800
H957        H  0.44448194  0.79615505  0.52840252     0.38300
H958        H  0.33852164  0.95523882  0.54348167     0.33800
H959        H  0.30652178  0.91988438  0.53911587     0.30500
H960        H  0.27889551  0.78191738  0.51796915     0.33800
H961        H  0.29606614  0.82512742  0.50584175     0.30500
H962        H  0.28245631  0.89719817  0.66904420     0.38300
H963        H  0.30966589  0.86026966  0.68236849     0.33800
C964        C  0.13634231  0.42672858  0.55289758    -0.19900
C965        C  0.11804476  0.39251314  0.56318043     0.36300
C966        C  0.13068185  0.37250023  0.59304928    -0.25900
C967        C  0.16105636  0.38645463  0.61301294     0.02700
C968        C  0.17952477  0.42064615  0.60302009     0.27500
C969        C  0.16698430  0.44052316  0.57283336    -0.25000
N970        N  0.08586583  0.37884095  0.54413268    -0.82400
H971        H  0.11652949  0.34618383  0.60097761     0.13300
C972        C  0.17342785  0.36434020  0.64405138     0.02700
N973        N  0.21070495  0.43491955  0.62364549    -0.81000
H974        H  0.18099231  0.46685026  0.56479741     0.18200
C975        C  0.20426806  0.34001211  0.63877515    -0.25800
C976        C  0.21575664  0.31585860  0.66627874     0.36200
C977        C  0.19623284  0.31632640  0.69983775    -0.19900
C978        C  0.16559727  0.34116349  0.70524657    -0.25100
C979        C  0.15398222  0.36539548  0.67780227     0.27600
H980        H  0.21896021  0.33906769  0.61277173     0.13300
N981        N  0.24637782  0.28989615  0.65941899    -0.82400
H982        H  0.15082133  0.34213942  0.73118590     0.18200
N983        N  0.12256126  0.39043906  0.68520831    -0.81000
H984        H  0.26944630  0.30677577  0.65307677     0.33800
H985        H  0.24040239  0.27155341  0.63654375     0.38300
H986        H  0.12938038  0.40993404  0.70697006     0.31500
H987        H  0.11668014  0.40771483  0.66317536     0.30500
H988        H  0.22123864  0.46037425  0.61256158     0.33800
H989        H  0.20131692  0.44296825  0.65005484     0.30500
H990        H  0.09086917  0.35012435  0.53407114     0.38300
H991        H  0.06399249  0.37817140  0.56296111     0.33800
C992        C  0.16419783  0.56777836  0.36160457    -0.19900
C993        C  0.14486525  0.56763055  0.32825641     0.36300
C994        C  0.15827001  0.58988215  0.29990686    -0.25900
C995        C  0.18983071  0.61296406  0.30471354     0.02700
C996        C  0.20906276  0.61351394  0.33796243     0.27500
C997        C  0.19595397  0.59076567  0.36632069    -0.25000
N998        N  0.11097233  0.54608093  0.32390783    -0.82400
H999        H  0.14338944  0.59038401  0.27436635     0.13300
C1000       C  0.20039352  0.63863048  0.27533446     0.02700
N1001       N  0.24133996  0.63756791  0.34281200    -0.81000
H1002       H  0.21022483  0.59101048  0.39220730     0.18200
C1003       C  0.19001909  0.67811246  0.27858081    -0.25800
C1004       C  0.19607333  0.70283355  0.24964972     0.36200
C1005       C  0.21194237  0.68716148  0.21666426    -0.19900
C1006       C  0.22359428  0.64796597  0.21403351    -0.25100
C1007       C  0.21783671  0.62337400  0.24321843     0.27600
H1008       H  0.17681901  0.68945143  0.30363098     0.13300
N1009       N  0.18672308  0.74378393  0.25380282    -0.82400
H1010       H  0.23675109  0.63650472  0.18901764     0.18200
N1011       N  0.22904602  0.58292658  0.24035223    -0.81000
H1012       H  0.17509273  0.75034356  0.27965677     0.33800
H1013       H  0.21128543  0.75975062  0.25258381     0.38300
H1014       H  0.24141586  0.57631060  0.21485171     0.33800
H1015       H  0.24932959  0.57906012  0.25999029     0.30500
H1016       H  0.25211018  0.63477992  0.36896822     0.33800
H1017       H  0.26144804  0.62682613  0.32422367     0.30500
H1018       H  0.09171141  0.55854781  0.34249442     0.38300
H1019       H  0.10021069  0.54917063  0.29777305     0.33800
C1020       C  0.08950372  0.57520936  0.49870129    -0.19900
C1021       C  0.09004106  0.61354501  0.48476032     0.36300
C1022       C  0.10250371  0.64551245  0.50726623    -0.25900
C1023       C  0.11229028  0.64070445  0.54390886     0.02700
C1024       C  0.10517316  0.60416923  0.55913677     0.27500
C1025       C  0.09121120  0.57315984  0.53688987    -0.25000
N1026       N  0.07582253  0.62173590  0.44934198    -0.82400
H1027       H  0.10439539  0.67430959  0.49610394     0.13300
C1028       C  0.12826213  0.67395844  0.56683508     0.02700
N1029       N  0.11316542  0.59815074  0.59691679    -0.81000
H1030       H  0.08193305  0.54711275  0.54971218     0.18200
C1031       C  0.11227854  0.68371988  0.60113911    -0.25800
C1032       C  0.12951272  0.70971735  0.62652734     0.36200
C1033       C  0.16227360  0.72948218  0.61641861    -0.19900
C1034       C  0.17723206  0.72123564  0.58123930    -0.25100
C1035       C  0.16096180  0.69335686  0.55658723     0.27600
H1036       H  0.08693254  0.66934082  0.60892190     0.13300
N1037       N  0.11462793  0.71436130  0.66307340    -0.82400
H1038       H  0.20201936  0.73616152  0.57298206     0.18200
N1039       N  0.17800231  0.68411608  0.52157110    -0.81000
H1040       H  0.09055599  0.69788676  0.66588360     0.33800
H1041       H  0.13396068  0.70298150  0.68080101     0.38300
H1042       H  0.20168644  0.70111255  0.51814214     0.33800
H1043       H  0.18672832  0.65489678  0.52133595     0.30500
H1044       H  0.10645614  0.56956501  0.60368915     0.33800
H1045       H  0.14169096  0.60095434  0.60016068     0.30500
H1046       H  0.06670274  0.59639059  0.43518668     0.38300
H1047       H  0.09663449  0.63432070  0.43381763     0.33800
C1048       C  0.18534057  0.18379950  0.17557329    -0.19900
C1049       C  0.17032899  0.20321876  0.14569913     0.36300
C1050       C  0.15275150  0.18174627  0.11725796    -0.25900
C1051       C  0.14675473  0.14126497  0.11893543     0.02700
C1052       C  0.15893040  0.12204163  0.14998523     0.27500
C1053       C  0.17864063  0.14317612  0.17744754    -0.25000
N1054       N  0.17247185  0.24506238  0.14426779    -0.82400
H1055       H  0.14320992  0.19711047  0.09387687     0.13300
C1056       C  0.12635420  0.11975594  0.08885458     0.02700
N1057       N  0.15032473  0.08131094  0.15405458    -0.81000
H1058       H  0.18712912  0.12760251  0.20087851     0.18200
C1059       C  0.14062828  0.08439406  0.07324302    -0.25800
C1060       C  0.12072095  0.06160786  0.04704860     0.36200
C1061       C  0.08665148  0.07574999  0.03431374    -0.19900
C1062       C  0.07350939  0.11224530  0.04864461    -0.25100
C1063       C  0.09226175  0.13368806  0.07636748     0.27600
H1064       H  0.16697179  0.07382673  0.08248126     0.13300
N1065       N  0.13460304  0.02381634  0.03442308    -0.82400
H1066       H  0.04735458  0.12341555  0.03950711     0.18200
N1067       N  0.07601587  0.16880693  0.09284185    -0.81000
H1068       H  0.16076342  0.01890423  0.04510217     0.33800
H1069       H  0.11736172  0.00260838  0.04527646     0.38300
H1070       H  0.05089261  0.17505376  0.08053980     0.33800
H1071       H  0.06999474  0.16348863  0.12017479     0.30500
H1072       H  0.16112624  0.07145627  0.17837299     0.33800
H1073       H  0.12162588  0.07892494  0.15626945     0.30500
H1074       H  0.18616290  0.25176650  0.12004811     0.38300
H1075       H  0.14559806  0.25607525  0.14323022     0.33800
C1076       C  0.41163958  0.42415396  0.13419874    -0.19900
C1077       C  0.41013852  0.38456926  0.12091225     0.36300
C1078       C  0.38564113  0.35838279  0.13720119    -0.25900
C1079       C  0.36217392  0.37092363  0.16611401     0.02700
C1080       C  0.36355554  0.41031972  0.17952741     0.27500
C1081       C  0.38825574  0.43659029  0.16338929    -0.25000
N1082       N  0.43241434  0.37148503  0.08996400    -0.82400
H1083       H  0.38401936  0.32822724  0.12662705     0.13300
C1084       C  0.33423913  0.34309985  0.17981008     0.02700
N1085       N  0.33964634  0.42349473  0.20920809    -0.81000
H1086       H  0.38912297  0.46698422  0.17331530     0.18200
C1087       C  0.34118705  0.32221723  0.21116618    -0.25800
C1088       C  0.31599888  0.29388117  0.22324281     0.36200
C1089       C  0.28292265  0.28680828  0.20376258    -0.19900
C1090       C  0.27596116  0.30843869  0.17275035    -0.25100
C1091       C  0.30126963  0.33626086  0.16053118     0.27600
H1092       H  0.36675815  0.32740056  0.22569732     0.13300
N1093       N  0.32453563  0.27155904  0.25440765    -0.82400
H1094       H  0.25045148  0.30376616  0.15799374     0.18200
N1095       N  0.29389972  0.35733637  0.12826753    -0.81000
H1096       H  0.34965948  0.28062708  0.26577542     0.33800
H1097       H  0.32815807  0.24241402  0.24505770     0.38300
H1098       H  0.26869252  0.34853977  0.11688334     0.33800
H1099       H  0.29111473  0.38700527  0.13626727     0.30500
H1100       H  0.34418035  0.45318846  0.21599698     0.33800
H1101       H  0.31245513  0.42117580  0.20005568     0.30500
H1102       H  0.42361873  0.38655899  0.06738797     0.38300
H1103       H  0.42808076  0.34165097  0.08359612     0.33800
C1104       C  0.27301633  0.19089038  0.28521051    -0.19900
C1105       C  0.30247343  0.16642897  0.27268729     0.36300
C1106       C  0.32966950  0.15549657  0.29744000    -0.25900
C1107       C  0.32766069  0.16762369  0.33462959     0.02700
C1108       C  0.29705600  0.19027863  0.34743387     0.27500
C1109       C  0.27048155  0.20233320  0.32245389    -0.25000
N1110       N  0.30533278  0.15374942  0.23469265    -0.82400
H1111       H  0.35321232  0.13847283  0.28740516     0.13300
C1112       C  0.35890117  0.15881313  0.35933686     0.02700
N1113       N  0.29323564  0.20108663  0.38575611    -0.81000
H1114       H  0.24764612  0.22073040  0.33203567     0.18200
C1115       C  0.37609613  0.18996190  0.37873773    -0.25800
C1116       C  0.40569073  0.18359907  0.40209832     0.36200
C1117       C  0.41856431  0.14497474  0.40734506    -0.19900
C1118       C  0.40283906  0.11411509  0.38587049    -0.25100
C1119       C  0.37289954  0.12046974  0.36242869     0.27600
H1120       H  0.36682996  0.21976503  0.37530832     0.13300
N1121       N  0.42311732  0.21685190  0.42001781    -0.82400
H1122       H  0.41444566  0.08519684  0.38592444     0.18200
N1123       N  0.35676949  0.08812079  0.34167801    -0.81000
H1124       H  0.43287002  0.23517955  0.39994188     0.33800
H1125       H  0.40316954  0.23228484  0.43574453     0.38300
H1126       H  0.37033050  0.06190070  0.34677659     0.33800
H1127       H  0.32957792  0.08508473  0.35089047     0.30500
H1128       H  0.26924122  0.21758024  0.39071502     0.33800
H1129       H  0.28999293  0.17521736  0.39969957     0.30500
H1130       H  0.30939330  0.17856480  0.21944917     0.38300
H1131       H  0.32846783  0.13582457  0.23004298     0.33800
C1132       C  0.09900981  0.43289480  0.40342044    -0.19900
C1133       C  0.08177745  0.42609538  0.36894717     0.36300
C1134       C  0.09525757  0.39610749  0.34414389    -0.25900
C1135       C  0.12706489  0.37453074  0.35174744     0.02700
C1136       C  0.14549567  0.38261182  0.38476314     0.27500
C1137       C  0.13218980  0.41222205  0.40916583    -0.25000
N1138       N  0.05273192  0.45136566  0.35778248    -0.82400
H1139       H  0.08216487  0.39101497  0.31785264     0.13300
C1140       C  0.14338466  0.34606710  0.32396506     0.02700
N1141       N  0.17862411  0.36154106  0.39282838    -0.81000
H1142       H  0.14969471  0.42073515  0.43185862     0.18200
C1143       C  0.17809822  0.35423540  0.30878552    -0.25800
C1144       C  0.19630912  0.32695325  0.28486598     0.36200
C1145       C  0.18023866  0.28976142  0.27710396    -0.19900
C1146       C  0.14483662  0.28215371  0.29145095    -0.25100
C1147       C  0.12613743  0.31009183  0.31449479     0.27600
H1148       H  0.19097289  0.38226164  0.31561009     0.13300
N1149       N  0.23049730  0.33747635  0.26767854    -0.82400
H1150       H  0.13198854  0.25398694  0.28532591     0.18200
N1151       N  0.09000563  0.30186711  0.32874804    -0.81000
H1152       H  0.23870787  0.36566211  0.27658135     0.33800
H1153       H  0.22567419  0.33849745  0.23959573     0.38300
H1154       H  0.08092018  0.27435853  0.31880635     0.33800
H1155       H  0.09209730  0.30041468  0.35715034     0.30500
H1156       H  0.18929143  0.37131422  0.41810863     0.33800
H1157       H  0.17144581  0.33211259  0.39536433     0.30500
H1158       H  0.06394018  0.47936396  0.35532718     0.38300
H1159       H  0.04323747  0.44243672  0.33180964     0.33800
loop_ 
_geom_bond_atom_site_label_1 
_geom_bond_atom_site_label_2 
_geom_bond_distance 
_geom_bond_site_symmetry_2 
_ccdc_geom_bond_type 
C1            C2   1.542       .  S
C1            C7   1.536       .  S
C1            C5   1.545       .  S
C1         C1048   1.540       .  S
C2            H9   1.086       .  S
C2            C3   1.368       .  D
C3            C4   1.542       .  S
C3         C1089   1.497       .  S
C4            C8   1.547       .  S
C4            C6   1.541       .  S
C4           H10   1.108       .  S
C5           H11   1.082       .  S
C5            C6   1.366       .  D
C6         C1104   1.488       .  S
C7           H12   1.086       .  S
C7            C8   1.367       .  D
C8         C1145   1.499       .  S
C13          C15   1.525       .  S
C13          C17   1.538       .  S
C13          C16   1.552       .  S
C13        C1132   1.548       .  S
C14          C18   1.536       .  S
C14          C20   1.553       .  S
C14          C19   1.547       .  S
C14        C1020   1.551       .  S
C15          C23   1.368       .  A
C15          C18   1.388       .  A
C16          C27   1.386       .  A
C16          C19   1.408       .  A
C17          C31   1.375       .  A
C17          C20   1.397       .  A
C18          C21   1.379       .  A
C19          C25   1.379       .  A
C20          C28   1.384       .  A
C21          N22   1.356       .  A
C21          H34   1.079       .  S
N22          C23   1.351       .  A
N22         C992   1.429       .  S
C23          H24   1.083       .  S
C25          N26   1.360   1_455  A
C25          H35   1.082       .  S
N26          C27   1.363   1_655  A
N26         N108   1.417       .  S
C27          H33   1.081       .  S
C28          N29   1.352       .  A
C28          H30   1.080       .  S
N29          C31   1.350       .  A
N29         C964   1.432       .  S
C31          H32   1.082       .  S
C36          C37   1.552       .  S
C36          C42   1.534       .  S
C36          C40   1.535       .  S
C36         C880   1.547       .  S
C37          H44   1.080       .  S
C37          C38   1.363       .  D
C38          C39   1.536       .  S
C38         C908   1.492       .  S
C39          C43   1.552       .  S
C39          C41   1.548       .  S
C39          H45   1.110       .  S
C40          H46   1.085       .  S
C40          C41   1.370       .  D
C41         C936   1.497       .  S
C42          H47   1.084       .  S
C42          C43   1.370       .  D
C43        C1033   1.504       .  S
C48          C50   1.544       .  S
C48          C52   1.535       .  S
C48          C51   1.561       .  S
C48        C1117   1.541       .  S
C49          C53   1.537       .  S
C49          C55   1.526       .  S
C49          C54   1.546       .  S
C49         C809   1.536       .  S
C50          C58   1.383       .  A
C50          C53   1.400       .  A
C51          C62   1.391       .  A
C51          C54   1.411       .  A
C52          C66   1.381       .  A
C52          C55   1.383       .  A
C53          C56   1.380       .  A
C54          C60   1.379       .  A
C55          C63   1.374       .  A
C56          N57   1.354       .  A
C56          H69   1.082       .  S
N57          C58   1.355       .  A
N57         C837   1.438       .  S
C58          H59   1.082       .  S
C60          N61   1.348       .  A
C60          H70   1.080       .  S
N61          C62   1.356       .  A
N61         N155   1.405   1_545  S
C62          H68   1.078       .  S
C63          N64   1.359       .  A
C63          H65   1.082       .  S
N64          C66   1.360       .  A
N64         C852   1.442       .  S
C66          H67   1.082       .  S
C71          C72   1.538       .  S
C71          C77   1.541       .  S
C71          C75   1.543       .  S
C71         C712   1.543       .  S
C72          H79   1.086       .  S
C72          C73   1.368       .  D
C73          C74   1.545       .  S
C73         C768   1.497       .  S
C74          C78   1.544       .  S
C74          C76   1.542       .  S
C74          H80   1.110       .  S
C75          H81   1.083       .  S
C75          C76   1.367       .  D
C76         C865   1.488       .  S
C77          H82   1.086       .  S
C77          C78   1.363       .  D
C78         C740   1.487       .  S
C83          C84   1.549       .  S
C83          C89   1.538       .  S
C83          C87   1.546       .  S
C83         C656   1.531       .  S
C84          H91   1.080       .  S
C84          C85   1.365       .  D
C85          C86   1.527       .  S
C85         C977   1.477       .  S
C86          C90   1.528       .  S
C86          C88   1.533       .  S
C86          H92   1.109       .  S
C87          H93   1.086       .  S
C87          C88   1.367       .  D
C88         C824   1.487       .  S
C89          H94   1.086       .  S
C89          C90   1.359       .  D
C90         C697   1.469       .  S
C95          C97   1.531       .  S
C95          C99   1.532       .  S
C95          C98   1.562       .  S
C95         C572   1.547       .  S
C96         C100   1.531       .  S
C96         C102   1.530       .  S
C96         C101   1.559       .  S
C96         C781   1.545       .  S
C97         C105   1.380       .  A
C97         C100   1.392       .  A
C98         C109   1.388       .  A
C98         C101   1.432       .  A
C99         C113   1.374       .  A
C99         C102   1.385       .  A
C100        C103   1.381       .  A
C101        C107   1.390       .  A
C102        C110   1.375       .  A
C103        N104   1.353       .  A
C103        H116   1.083       .  S
N104        C105   1.354       .  A
N104        C628   1.441       .  S
C105        H106   1.082       .  S
C107        N108   1.355       .  A
C107        H117   1.079       .  S
N108        C109   1.355       .  A
C109        H115   1.080       .  S
C110        N111   1.356       .  A
C110        H112   1.082       .  S
N111        C113   1.357       .  A
N111        C613   1.433       .  S
C113        H114   1.082       .  S
C118        C119   1.540       .  S
C118        C124   1.551       .  S
C118        C122   1.553       .  S
C118        C501   1.548       .  S
C119        H126   1.086       .  S
C119        C120   1.363       .  D
C120        C121   1.526       .  S
C120        C516   1.476       .  S
C121        C125   1.527       .  S
C121        C123   1.535       .  S
C121        H127   1.110       .  S
C122        H128   1.085       .  S
C122        C123   1.376       .  D
C123        C544   1.492       .  S
C124        H129   1.082       .  S
C124        C125   1.364       .  D
C125        C641   1.484       .  S
C130        C131   1.539       .  S
C130        C136   1.541       .  S
C130        C134   1.557       .  S
C130        C445   1.536       .  S
C131        H138   1.086       .  S
C131        C132   1.362       .  D
C132        C133   1.528       .  S
C132        C473   1.480       .  S
C133        C137   1.525       .  S
C133        C135   1.530       .  S
C133        H139   1.111       .  S
C134        H140   1.080       .  S
C134        C135   1.374       .  D
C135        C796   1.482       .  S
C136        H141   1.087       .  S
C136        C137   1.355       .  D
C137        C600   1.469       .  S
C142        C144   1.534       .  S
C142        C146   1.546       .  S
C142        C145   1.556       .  S
C142        C949   1.547       .  S
C143        C147   1.535       .  S
C143        C149   1.558       .  S
C143        C148   1.540       .  S
C143        C557   1.552       .  S
C144        C152   1.375       .  A
C144        C147   1.383       .  A
C145        C156   1.394       .  A
C145        C148   1.407       .  A
C146        C160   1.382       .  A
C146        C149   1.403       .  A
C147        C150   1.377       .  A
C148        C154   1.373       .  A
C149        C157   1.390       .  A
C150        N151   1.361       .  A
C150        H163   1.080       .  S
N151        C152   1.361       .  A
N151        C404   1.449       .  S
C152        H153   1.081       .  S
C154        N155   1.350       .  A
C154        H164   1.082       .  S
N155        C156   1.356       .  A
C156        H162   1.077       .  S
C157        N158   1.355       .  A
C157        H159   1.078       .  S
N158        C160   1.353       .  A
N158        C376   1.437       .  S
C160        H161   1.082       .  S
C165        C166   1.538       .  S
C165        C171   1.542       .  S
C165        C169   1.554       .  S
C165        C333   1.537       .  S
C166        H173   1.086       .  S
C166        C167   1.362       .  D
C167        C168   1.527       .  S
C167       C1005   1.473       .  S
C168        C172   1.532       .  S
C168        C170   1.533       .  S
C168        H174   1.109       .  S
C169        H175   1.083       .  S
C169        C170   1.370       .  D
C170        C417   1.492       .  S
C171        H176   1.086       .  S
C171        C172   1.365       .  D
C172        C361   1.489       .  S
C177        C178   1.539       .  S
C177        C183   1.540       .  S
C177        C181   1.552       .  S
C177        C264   1.552       .  S
C178        H185   1.085       .  S
C178        C179   1.370       .  D
C179        C180   1.552       .  S
C179        C585   1.506       .  S
C180        C184   1.544       .  S
C180        C182   1.536       .  S
C180        H186   1.110       .  S
C181        H187   1.079       .  S
C181        C182   1.367       .  D
C182        C389   1.491       .  S
C183        H188   1.086       .  S
C183        C184   1.368       .  D
C184        C292   1.497       .  S
C189        C191   1.541       .  S
C189        C193   1.538       .  S
C189        C192   1.551       .  S
C189        C753   1.547       .  S
C190        C194   1.550       .  S
C190        C196   1.543       .  S
C190        C195   1.538       .  S
C190        C348   1.545       .  S
C191        C199   1.378       .  A
C191        C194   1.394       .  A
C192        C203   1.391   1_554  A
C192        C195   1.412       .  A
C193        C207   1.379       .  A
C193        C196   1.390       .  A
C194        C197   1.384       .  A
C195        C201   1.376   1_554  A
C196        C204   1.385       .  A
C197        N198   1.355       .  A
C197        H210   1.081       .  S
N198        C199   1.355       .  A
N198        C529   1.437       .  S
C199        H200   1.082       .  S
C201        N202   1.349       .  A
C201        H211   1.082       .  S
N202        C203   1.356       .  A
N202        N225   1.406       .  S
C203        H209   1.081       .  S
C204        N205   1.359       .  A
C204        H206   1.079       .  S
N205        C207   1.359       .  A
N205       C1076   1.446       .  S
C207        H208   1.082       .  S
C212        C214   1.542       .  S
C212        C216   1.542       .  S
C212        C215   1.567       .  S
C212        C305   1.545       .  S
C213        C217   1.534       .  S
C213        C219   1.526       .  S
C213        C218   1.538       .  S
C213        C684   1.535       .  S
C214        C222   1.382       .  A
C214        C217   1.402       .  A
C215        C226   1.395       .  A
C215        C218   1.408       .  A
C216        C230   1.385       .  A
C216        C219   1.386       .  A
C217        C220   1.381       .  A
C218        C224   1.373       .  A
C219        C227   1.375       .  A
C220        N221   1.349       .  A
C220        H233   1.082       .  S
N221        C222   1.350       .  A
N221        C460   1.433       .  S
C222        H223   1.083       .  S
C224        N225   1.349       .  A
C224        H234   1.082       .  S
N225        C226   1.360       .  A
C226        H232   1.079       .  S
C227        N228   1.353       .  A
C227        H229   1.083       .  S
N228        C230   1.359       .  A
N228        C921   1.435       .  S
C230        H231   1.082       .  S
O235        C243   1.254       .  A
O235       Co255   1.955   1_455  S
O236        C244   1.257       .  A
O236       Co256   1.880       .  S
O237        C245   1.280       .  A
O237       Co257   2.016   1_545  S
O238        C246   1.274   1_556  A
O238       Co258   2.029   1_545  S
O239        C245   1.270       .  A
O239       Co256   1.968   1_455  S
O240        C246   1.259       .  A
O240       Co255   1.967       .  S
O241        C244   1.296       .  A
O241       Co258   2.119   1_545  S
O242        C243   1.269   1_556  A
O242       Co257   2.032   1_545  S
C243       C1061   1.493       .  S
C244        C432   1.479       .  S
C245        C669   1.477       .  S
C246        C725   1.495       .  S
O247        C260   1.271       .  A
O247       Co255   2.004   1_565  S
O248        C261   1.257       .  A
O248       Co256   1.998   1_465  S
O249        C262   1.264   1_556  A
O249       Co257   1.945       .  S
O250        C263   1.276       .  A
O250       Co258   1.889       .  S
O251        C263   1.303       .  A
O251       Co256   2.118   1_565  S
O252        C262   1.283       .  A
O252       Co255   2.051   1_465  S
O253        C260   1.271   1_556  A
O253       Co258   1.988       .  S
O254        C261   1.259       .  A
O254       Co257   1.991       .  S
Co255       O259   2.014   1_554  S
Co256       O259   1.980       .  S
Co257       O259   2.039   1_465  S
Co258       O259   2.018   1_565  S
C260        C488   1.486       .  S
C261        C893   1.491       .  S
C262        C320   1.493       .  S
C263        C277   1.500       .  S
C264        C265   1.426       .  A
C264        C269   1.416       .  A
C265        C266   1.413       .  A
C265        N270   1.439       .  S
C266        C267   1.400       .  A
C266        H271   1.084       .  S
C267        C268   1.405       .  A
C267        C272   1.488       .  S
C268        C269   1.407       .  A
C268        N273   1.440       .  S
C269        H274   1.073       .  S
N270        H290   1.044       .  S
N270        H291   1.045       .  S
C272        C275   1.401       .  A
C272        C279   1.408       .  A
N273        H288   1.046       .  S
N273        H289   1.044       .  S
C275        C276   1.411       .  A
C275        H280   1.084       .  S
C276        C277   1.421       .  A
C276        N281   1.437       .  S
C277        C278   1.409       .  A
C278        C279   1.408       .  A
C278        H282   1.083       .  S
C279        N283   1.438       .  S
N281        H284   1.046       .  S
N281        H285   1.045       .  S
N283        H286   1.045       .  S
N283        H287   1.045       .  S
C292        C293   1.418       .  A
C292        C297   1.403       .  A
C293        C294   1.411       .  A
C293        N298   1.438       .  S
C294        C295   1.401       .  A
C294        H299   1.084       .  S
C295        C296   1.412       .  A
C295        C300   1.490       .  S
C296        C297   1.411       .  A
C296        N301   1.437       .  S
C297        H302   1.083       .  S
N298        H318   1.046       .  S
N298        H319   1.046       .  S
C300        C303   1.395       .  A
C300        C307   1.410       .  A
N301        H316   1.046       .  S
N301        H317   1.045       .  S
C303        C304   1.401       .  A
C303        H308   1.084       .  S
C304        C305   1.424       .  A
C304        N309   1.433       .  S
C305        C306   1.411       .  A
C306        C307   1.415       .  A
C306        H310   1.071       .  S
C307        N311   1.437       .  S
N309        H312   1.046       .  S
N309        H313   1.046       .  S
N311        H314   1.045       .  S
N311        H315   1.046       .  S
C320        C321   1.416       .  A
C320        C325   1.409       .  A
C321        C322   1.411       .  A
C321        N326   1.438       .  S
C322        C323   1.407       .  A
C322        H327   1.083       .  S
C323        C324   1.410       .  A
C323        C328   1.492       .  S
C324        C325   1.401       .  A
C324        N329   1.439       .  S
C325        H330   1.083       .  S
N326        H346   1.045       .  S
N326        H347   1.045       .  S
C328        C331   1.403       .  A
C328        C335   1.410       .  A
N329        H344   1.046       .  S
N329        H345   1.045       .  S
C331        C332   1.406       .  A
C331        H336   1.084       .  S
C332        C333   1.422       .  A
C332        N337   1.439       .  S
C333        C334   1.411       .  A
C334        C335   1.405       .  A
C334        H338   1.079       .  S
C335        N339   1.438       .  S
N337        H340   1.046       .  S
N337        H341   1.045       .  S
N339        H342   1.045       .  S
N339        H343   1.046       .  S
C348        C349   1.424       .  A
C348        C353   1.409       .  A
C349        C350   1.406       .  A
C349        N354   1.438       .  S
C350        C351   1.405       .  A
C350        H355   1.083       .  S
C351        C352   1.409       .  A
C351        C356   1.493       .  S
C352        C353   1.404       .  A
C352        N357   1.438       .  S
C353        H358   1.080       .  S
N354        H374   1.042       .  S
N354        H375   1.044       .  S
C356        C359   1.403       .  A
C356        C363   1.414       .  A
N357        H372   1.045       .  S
N357        H373   1.046       .  S
C359        C360   1.400       .  A
C359        H364   1.084       .  S
C360        C361   1.411       .  A
C360        N365   1.438       .  S
C361        C362   1.405       .  A
C362        C363   1.413       .  A
C362        H366   1.083       .  S
C363        N367   1.437       .  S
N365        H368   1.046       .  S
N365        H369   1.045       .  S
N367        H370   1.046       .  S
N367        H371   1.046       .  S
C376        C377   1.408       .  A
C376        C381   1.401       .  A
C377        C378   1.409       .  A
C377        N382   1.437       .  S
C378        C379   1.405       .  A
C378        H383   1.083       .  S
C379        C380   1.413       .  A
C379        C384   1.490       .  S
C380        C381   1.408       .  A
C380        N385   1.437       .  S
C381        H386   1.083       .  S
N382        H402   1.045       .  S
N382        H403   1.045       .  S
C384        C387   1.403       .  A
C384        C391   1.412       .  A
N385        H400   1.046       .  S
N385        H401   1.046       .  S
C387        C388   1.403       .  A
C387        H392   1.084       .  S
C388        C389   1.411       .  A
C388        N393   1.432       .  S
C389        C390   1.405       .  A
C390        C391   1.411       .  A
C390        H394   1.084       .  S
C391        N395   1.437       .  S
N393        H396   1.045       .  S
N393        H397   1.046       .  S
N395        H398   1.046       .  S
N395        H399   1.046       .  S
C404        C405   1.415       .  A
C404        C409   1.409       .  A
C405        C406   1.404       .  A
C405        N410   1.437       .  S
C406        C407   1.405       .  A
C406        H411   1.083       .  S
C407        C408   1.412       .  A
C407        C412   1.492       .  S
C408        C409   1.404       .  A
C408        N413   1.438       .  S
C409        H414   1.080       .  S
N410        H430   1.045       .  S
N410        H431   1.046       .  S
C412        C415   1.407       .  A
C412        C419   1.412       .  A
N413        H428   1.046       .  S
N413        H429   1.045       .  S
C415        C416   1.407       .  A
C415        H420   1.083       .  S
C416        C417   1.412       .  A
C416        N421   1.437       .  S
C417        C418   1.406       .  A
C418        C419   1.400       .  A
C418        H422   1.081       .  S
C419        N423   1.439       .  S
N421        H424   1.046       .  S
N421        H425   1.045       .  S
N423        H426   1.046       .  S
N423        H427   1.045       .  S
C432        C433   1.414       .  A
C432        C437   1.404       .  A
C433        C434   1.404       .  A
C433        N438   1.439       .  S
C434        C435   1.403       .  A
C434        H439   1.084       .  S
C435        C436   1.410       .  A
C435        C440   1.484       .  S
C436        C437   1.406       .  A
C436        N441   1.437       .  S
C437        H442   1.084       .  S
N438        H458   1.046       .  S
N438        H459   1.046       .  S
C440        C443   1.404       .  A
C440        C447   1.404       .  A
N441        H456   1.046       .  S
N441        H457   1.045       .  S
C443        C444   1.411       .  A
C443        H448   1.084       .  S
C444        C445   1.419       .  A
C444        N449   1.434       .  S
C445        C446   1.414       .  A
C446        C447   1.398       .  A
C446        H450   1.084       .  S
C447        N451   1.439       .  S
N449        H452   1.046       .  S
N449        H453   1.045       .  S
N451        H454   1.046       .  S
N451        H455   1.045       .  S
C460        C461   1.411       .  A
C460        C465   1.402       .  A
C461        C462   1.401       .  A
C461        N466   1.437       .  S
C462        C463   1.399       .  A
C462        H467   1.084       .  S
C463        C464   1.407       .  A
C463        C468   1.471       .  S
C464        C465   1.404       .  A
C464        N469   1.437       .  S
C465        H470   1.083       .  S
N466        H486   1.046       .  S
N466        H487   1.045       .  S
C468        C471   1.400       .  A
C468        C475   1.405       .  A
N469        H484   1.046       .  S
N469        H485   1.046       .  S
C471        C472   1.403       .  A
C471        H476   1.084       .  S
C472        C473   1.413       .  A
C472        N477   1.438       .  S
C473        C474   1.404       .  A
C474        C475   1.401       .  A
C474        H478   1.083       .  S
C475        N479   1.437       .  S
N477        H480   1.046       .  S
N477        H481   1.045       .  S
N479        H482   1.045       .  S
N479        H483   1.046       .  S
C488        C489   1.414       .  A
C488        C493   1.404       .  A
C489        C490   1.408       .  A
C489        N494   1.436       .  S
C490        C491   1.404       .  A
C490        H495   1.084       .  S
C491        C492   1.414       .  A
C491        C496   1.497       .  S
C492        C493   1.411       .  A
C492        N497   1.437       .  S
C493        H498   1.084       .  S
N494        H514   1.045       .  S
N494        H515   1.046       .  S
C496        C499   1.404       .  A
C496        C503   1.408       .  A
N497        H512   1.045       .  S
N497        H513   1.045       .  S
C499        C500   1.410       .  A
C499        H504   1.084       .  S
C500        C501   1.419       .  A
C500        N505   1.432       .  S
C501        C502   1.416       .  A
C502        C503   1.408       .  A
C502        H506   1.076       .  S
C503        N507   1.439       .  S
N505        H508   1.045       .  S
N505        H509   1.046       .  S
N507        H510   1.045       .  S
N507        H511   1.046       .  S
C516        C517   1.406       .  A
C516        C521   1.402       .  A
C517        C518   1.403       .  A
C517        N522   1.432       .  S
C518        C519   1.401       .  A
C518        H523   1.084       .  S
C519        C520   1.409       .  A
C519        C524   1.475       .  S
C520        C521   1.404       .  A
C520        N525   1.438       .  S
C521        H526   1.084       .  S
N522        H542   1.045       .  S
N522        H543   1.046       .  S
C524        C527   1.400       .  A
C524        C531   1.408       .  A
N525        H540   1.046       .  S
N525        H541   1.045       .  S
C527        C528   1.404       .  A
C527        H532   1.084       .  S
C528        C529   1.410       .  A
C528        N533   1.437       .  S
C529        C530   1.404       .  A
C530        C531   1.405       .  A
C530        H534   1.083       .  S
C531        N535   1.438       .  S
N533        H536   1.046       .  S
N533        H537   1.046       .  S
N535        H538   1.045       .  S
N535        H539   1.046       .  S
C544        C545   1.412       .  A
C544        C549   1.405       .  A
C545        C546   1.411       .  A
C545        N550   1.437       .  S
C546        C547   1.406       .  A
C546        H551   1.083       .  S
C547        C548   1.412       .  A
C547        C552   1.494       .  S
C548        C549   1.405       .  A
C548        N553   1.439       .  S
C549        H554   1.084       .  S
N550        H570   1.045       .  S
N550        H571   1.046       .  S
C552        C555   1.400       .  A
C552        C559   1.408       .  A
N553        H568   1.046       .  S
N553        H569   1.046       .  S
C555        C556   1.405       .  A
C555        H560   1.084       .  S
C556        C557   1.435       .  A
C556        N561   1.441       .  S
C557        C558   1.408       .  A
C558        C559   1.407       .  A
C558        H562   1.069       .  S
C559        N563   1.438       .  S
N561        H564   1.045       .  S
N561        H565   1.038       .  S
N563        H566   1.046       .  S
N563        H567   1.045       .  S
C572        C573   1.423       .  A
C572        C577   1.411       .  A
C573        C574   1.402       .  A
C573        N578   1.434       .  S
C574        C575   1.398       .  A
C574        H579   1.084       .  S
C575        C576   1.413       .  A
C575        C580   1.499       .  S
C576        C577   1.419       .  A
C576        N581   1.437       .  S
C577        H582   1.078       .  S
N578        H598   1.045       .  S
N578        H599   1.046       .  S
C580        C583   1.404       .  A
C580        C587   1.412       .  A
N581        H596   1.045       .  S
N581        H597   1.046       .  S
C583        C584   1.415       .  A
C583        H588   1.084       .  S
C584        C585   1.420       .  A
C584        N589   1.437       .  S
C585        C586   1.405       .  A
C586        C587   1.409       .  A
C586        H590   1.083       .  S
C587        N591   1.438       .  S
N589        H592   1.045       .  S
N589        H593   1.045       .  S
N591        H594   1.046       .  S
N591        H595   1.046       .  S
C600        C601   1.408       .  A
C600        C605   1.403       .  A
C601        C602   1.398       .  A
C601        N606   1.438       .  S
C602        C603   1.399       .  A
C602        H607   1.084       .  S
C603        C604   1.407       .  A
C603        C608   1.466       .  S
C604        C605   1.403       .  A
C604        N609   1.438       .  S
C605        H610   1.084       .  S
N606        H626   1.045       .  S
N606        H627   1.046       .  S
C608        C611   1.399       .  A
C608        C615   1.407       .  A
N609        H624   1.046       .  S
N609        H625   1.044       .  S
C611        C612   1.402       .  A
C611        H616   1.084       .  S
C612        C613   1.410       .  A
C612        N617   1.437       .  S
C613        C614   1.403       .  A
C614        C615   1.401       .  A
C614        H618   1.083       .  S
C615        N619   1.439       .  S
N617        H620   1.046       .  S
N617        H621   1.045       .  S
N619        H622   1.046       .  S
N619        H623   1.044       .  S
C628        C629   1.411       .  A
C628        C633   1.407       .  A
C629        C630   1.403       .  A
C629        N634   1.432       .  S
C630        C631   1.401       .  A
C630        H635   1.084       .  S
C631        C632   1.407       .  A
C631        C636   1.475       .  S
C632        C633   1.403       .  A
C632        N637   1.438       .  S
C633        H638   1.082       .  S
N634        H654   1.046       .  S
N634        H655   1.045       .  S
C636        C639   1.400       .  A
C636        C643   1.407       .  A
N637        H652   1.046       .  S
N637        H653   1.045       .  S
C639        C640   1.406       .  A
C639        H644   1.084       .  S
C640        C641   1.413       .  A
C640        N645   1.438       .  S
C641        C642   1.404       .  A
C642        C643   1.403       .  A
C642        H646   1.084       .  S
C643        N647   1.438       .  S
N645        H648   1.046       .  S
N645        H649   1.045       .  S
N647        H650   1.046       .  S
N647        H651   1.045       .  S
C656        C657   1.417       .  A
C656        C661   1.412       .  A
C657        C658   1.398       .  A
C657        N662   1.433       .  S
C658        C659   1.398       .  A
C658        H663   1.084       .  S
C659        C660   1.407       .  A
C659        C664   1.478       .  S
C660        C661   1.404       .  A
C660        N665   1.439       .  S
C661        H666   1.074       .  S
N662        H682   1.046       .  S
N662        H683   1.045       .  S
C664        C667   1.403       .  A
C664        C671   1.408       .  A
N665        H680   1.046       .  S
N665        H681   1.045       .  S
C667        C668   1.407       .  A
C667        H672   1.084       .  S
C668        C669   1.415       .  A
C668        N673   1.438       .  S
C669        C670   1.404       .  A
C670        C671   1.398       .  A
C670        H674   1.084       .  S
C671        N675   1.439       .  S
N673        H676   1.046       .  S
N673        H677   1.044       .  S
N675        H678   1.046       .  S
N675        H679   1.045       .  S
C684        C685   1.423       .  A
C684        C689   1.412       .  A
C685        C686   1.406       .  A
C685        N690   1.438       .  S
C686        C687   1.396       .  A
C686        H691   1.084       .  S
C687        C688   1.402       .  A
C687        C692   1.469       .  S
C688        C689   1.398       .  A
C688        N693   1.439       .  S
C689        H694   1.079       .  S
N690        H710   1.043       .  S
N690        H711   1.046       .  S
C692        C695   1.400       .  A
C692        C699   1.408       .  A
N693        H708   1.046       .  S
N693        H709   1.046       .  S
C695        C696   1.397       .  A
C695        H700   1.084       .  S
C696        C697   1.406       .  A
C696        N701   1.433       .  S
C697        C698   1.402       .  A
C698        C699   1.404       .  A
C698        H702   1.084       .  S
C699        N703   1.437       .  S
N701        H704   1.046       .  S
N701        H705   1.045       .  S
N703        H706   1.045       .  S
N703        H707   1.046       .  S
C712        C713   1.421       .  A
C712        C717   1.415       .  A
C713        C714   1.408       .  A
C713        N718   1.438       .  S
C714        C715   1.399       .  A
C714        H719   1.084       .  S
C715        C716   1.407       .  A
C715        C720   1.484       .  S
C716        C717   1.408       .  A
C716        N721   1.439       .  S
C717        H722   1.080       .  S
N718        H738   1.045       .  S
N718        H739   1.046       .  S
C720        C723   1.396       .  A
C720        C727   1.410       .  A
N721        H736   1.046       .  S
N721        H737   1.044       .  S
C723        C724   1.403       .  A
C723        H728   1.084       .  S
C724        C725   1.423       .  A
C724        N729   1.439       .  S
C725        C726   1.408       .  A
C726        C727   1.413       .  A
C726        H730   1.083       .  S
C727        N731   1.437       .  S
N729        H732   1.046       .  S
N729        H733   1.046       .  S
N731        H734   1.046       .  S
N731        H735   1.044       .  S
C740        C741   1.408       .  A
C740        C745   1.404       .  A
C741        C742   1.411       .  A
C741        N746   1.437       .  S
C742        C743   1.406       .  A
C742        H747   1.083       .  S
C743        C744   1.412       .  A
C743        C748   1.495       .  S
C744        C745   1.412       .  A
C744        N749   1.437       .  S
C745        H750   1.084       .  S
N746        H766   1.046       .  S
N746        H767   1.045       .  S
C748        C751   1.406       .  A
C748        C755   1.405       .  A
N749        H764   1.046       .  S
N749        H765   1.045       .  S
C751        C752   1.418       .  A
C751        H756   1.083       .  S
C752        C753   1.421       .  A
C752        N757   1.435       .  S
C753        C754   1.413       .  A
C754        C755   1.404       .  A
C754        H758   1.081       .  S
C755        N759   1.439       .  S
N757        H760   1.046       .  S
N757        H761   1.045       .  S
N759        H762   1.045       .  S
N759        H763   1.046       .  S
C768        C769   1.409       .  A
C768        C773   1.407       .  A
C769        C770   1.411       .  A
C769        N774   1.431       .  S
C770        C771   1.406       .  A
C770        H775   1.084       .  S
C771        C772   1.410       .  A
C771        C776   1.491       .  S
C772        C773   1.410       .  A
C772        N777   1.437       .  S
C773        H778   1.084       .  S
N774        H794   1.045       .  S
N774        H795   1.046       .  S
C776        C779   1.394       .  A
C776        C783   1.412       .  A
N777        H792   1.046       .  S
N777        H793   1.044       .  S
C779        C780   1.400       .  A
C779        H784   1.084       .  S
C780        C781   1.424       .  A
C780        N785   1.434       .  S
C781        C782   1.411       .  A
C782        C783   1.419       .  A
C782        H786   1.077       .  S
C783        N787   1.437       .  S
N785        H788   1.046       .  S
N785        H789   1.046       .  S
N787        H790   1.046       .  S
N787        H791   1.045       .  S
C796        C797   1.410       .  A
C796        C801   1.405       .  A
C797        C798   1.408       .  A
C797        N802   1.438       .  S
C798        C799   1.403       .  A
C798        H803   1.084       .  S
C799        C800   1.407       .  A
C799        C804   1.480       .  S
C800        C801   1.403       .  A
C800        N805   1.438       .  S
C801        H806   1.084       .  S
N802        H822   1.045       .  S
N802        H823   1.046       .  S
C804        C807   1.399       .  A
C804        C811   1.405       .  A
N805        H820   1.046       .  S
N805        H821   1.045       .  S
C807        C808   1.402       .  A
C807        H812   1.084       .  S
C808        C809   1.419       .  A
C808        N813   1.433       .  S
C809        C810   1.409       .  A
C810        C811   1.406       .  A
C810        H814   1.076       .  S
C811        N815   1.437       .  S
N813        H816   1.046       .  S
N813        H817   1.046       .  S
N815        H818   1.046       .  S
N815        H819   1.045       .  S
C824        C825   1.413       .  A
C824        C829   1.405       .  A
C825        C826   1.406       .  A
C825        N830   1.438       .  S
C826        C827   1.401       .  A
C826        H831   1.084       .  S
C827        C828   1.409       .  A
C827        C832   1.482       .  S
C828        C829   1.407       .  A
C828        N833   1.437       .  S
C829        H834   1.083       .  S
N830        H850   1.046       .  S
N830        H851   1.045       .  S
C832        C835   1.402       .  A
C832        C839   1.410       .  A
N833        H848   1.045       .  S
N833        H849   1.046       .  S
C835        C836   1.408       .  A
C835        H840   1.084       .  S
C836        C837   1.411       .  A
C836        N841   1.437       .  S
C837        C838   1.402       .  A
C838        C839   1.406       .  A
C838        H842   1.083       .  S
C839        N843   1.438       .  S
N841        H844   1.046       .  S
N841        H845   1.046       .  S
N843        H846   1.046       .  S
N843        H847   1.045       .  S
C852        C853   1.413       .  A
C852        C857   1.406       .  A
C853        C854   1.404       .  A
C853        N858   1.437       .  S
C854        C855   1.399       .  A
C854        H859   1.084       .  S
C855        C856   1.409       .  A
C855        C860   1.477       .  S
C856        C857   1.408       .  A
C856        N861   1.438       .  S
C857        H862   1.083       .  S
N858        H878   1.046       .  S
N858        H879   1.045       .  S
C860        C863   1.399       .  A
C860        C867   1.408       .  A
N861        H876   1.046       .  S
N861        H877   1.044       .  S
C863        C864   1.405       .  A
C863        H868   1.084       .  S
C864        C865   1.416       .  A
C864        N869   1.438       .  S
C865        C866   1.405       .  A
C866        C867   1.406       .  A
C866        H870   1.083       .  S
C867        N871   1.437       .  S
N869        H872   1.046       .  S
N869        H873   1.046       .  S
N871        H874   1.045       .  S
N871        H875   1.045       .  S
C880        C881   1.420       .  A
C880        C885   1.413       .  A
C881        C882   1.410       .  A
C881        N886   1.433       .  S
C882        C883   1.404       .  A
C882        H887   1.084       .  S
C883        C884   1.408       .  A
C883        C888   1.494       .  S
C884        C885   1.405       .  A
C884        N889   1.439       .  S
C885        H890   1.074       .  S
N886        H906   1.046       .  S
N886        H907   1.046       .  S
C888        C891   1.405       .  A
C888        C895   1.410       .  A
N889        H904   1.045       .  S
N889        H905   1.046       .  S
C891        C892   1.407       .  A
C891        H896   1.084       .  S
C892        C893   1.413       .  A
C892        N897   1.437       .  S
C893        C894   1.410       .  A
C894        C895   1.409       .  A
C894        H898   1.084       .  S
C895        N899   1.438       .  S
N897        H900   1.046       .  S
N897        H901   1.045       .  S
N899        H902   1.046       .  S
N899        H903   1.045       .  S
C908        C909   1.413       .  A
C908        C913   1.405       .  A
C909        C910   1.410       .  A
C909        N914   1.436       .  S
C910        C911   1.403       .  A
C910        H915   1.084       .  S
C911        C912   1.409       .  A
C911        C916   1.486       .  S
C912        C913   1.407       .  A
C912        N917   1.437       .  S
C913        H918   1.084       .  S
N914        H934   1.045       .  S
N914        H935   1.045       .  S
C916        C919   1.405       .  A
C916        C923   1.410       .  A
N917        H932   1.046       .  S
N917        H933   1.046       .  S
C919        C920   1.407       .  A
C919        H924   1.084       .  S
C920        C921   1.406       .  A
C920        N925   1.436       .  S
C921        C922   1.403       .  A
C922        C923   1.408       .  A
C922        H926   1.083       .  S
C923        N927   1.437       .  S
N925        H928   1.046       .  S
N925        H929   1.045       .  S
N927        H930   1.046       .  S
N927        H931   1.045       .  S
C936        C937   1.415       .  A
C936        C941   1.405       .  A
C937        C938   1.405       .  A
C937        N942   1.432       .  S
C938        C939   1.401       .  A
C938        H943   1.084       .  S
C939        C940   1.412       .  A
C939        C944   1.491       .  S
C940        C941   1.410       .  A
C940        N945   1.438       .  S
C941        H946   1.081       .  S
N942        H962   1.046       .  S
N942        H963   1.045       .  S
C944        C947   1.397       .  A
C944        C951   1.410       .  A
N945        H960   1.045       .  S
N945        H961   1.046       .  S
C947        C948   1.403       .  A
C947        H952   1.084       .  S
C948        C949   1.425       .  A
C948        N953   1.434       .  S
C949        C950   1.408       .  A
C950        C951   1.413       .  A
C950        H954   1.068       .  S
C951        N955   1.438       .  S
N953        H956   1.046       .  S
N953        H957   1.046       .  S
N955        H958   1.045       .  S
N955        H959   1.046       .  S
C964        C965   1.407       .  A
C964        C969   1.404       .  A
C965        C966   1.396       .  A
C965        N970   1.432       .  S
C966        C967   1.398       .  A
C966        H971   1.084       .  S
C967        C968   1.407       .  A
C967        C972   1.466       .  S
C968        C969   1.402       .  A
C968        N973   1.438       .  S
C969        H974   1.083       .  S
N970        H990   1.045       .  S
N970        H991   1.046       .  S
C972        C975   1.398       .  A
C972        C979   1.414       .  A
N973        H988   1.046       .  S
N973        H989   1.045       .  S
C975        C976   1.397       .  A
C975        H980   1.084       .  S
C976        C977   1.410       .  A
C976        N981   1.432       .  S
C977        C978   1.403       .  A
C978        C979   1.398       .  A
C978        H982   1.084       .  S
C979        N983   1.439       .  S
N981        H984   1.046       .  S
N981        H985   1.045       .  S
N983        H986   1.045       .  S
N983        H987   1.044       .  S
C992        C993   1.413       .  A
C992        C997   1.401       .  A
C993        C994   1.397       .  A
C993        N998   1.438       .  S
C994        C995   1.397       .  A
C994        H999   1.084       .  S
C995        C996   1.407       .  A
C995       C1000   1.466       .  S
C996        C997   1.404       .  A
C996       N1001   1.437       .  S
C997       H1002   1.083       .  S
N998       H1018   1.046       .  S
N998       H1019   1.046       .  S
C1000      C1003   1.398       .  A
C1000      C1007   1.406       .  A
N1001      H1016   1.045       .  S
N1001      H1017   1.046       .  S
C1003      C1004   1.400       .  A
C1003      H1008   1.084       .  S
C1004      C1005   1.413       .  A
C1004      N1009   1.438       .  S
C1005      C1006   1.401       .  A
C1006      C1007   1.402       .  A
C1006      H1010   1.084       .  S
C1007      N1011   1.437       .  S
N1009      H1012   1.046       .  S
N1009      H1013   1.046       .  S
N1011      H1014   1.046       .  S
N1011      H1015   1.046       .  S
C1020      C1021   1.426       .  A
C1020      C1025   1.404       .  A
C1021      C1022   1.412       .  A
C1021      N1026   1.439       .  S
C1022      C1023   1.407       .  A
C1022      H1027   1.084       .  S
C1023      C1024   1.412       .  A
C1023      C1028   1.499       .  S
C1024      C1025   1.402       .  A
C1024      N1029   1.439       .  S
C1025      H1030   1.077       .  S
N1026      H1046   1.042       .  S
N1026      H1047   1.044       .  S
C1028      C1031   1.402       .  A
C1028      C1035   1.413       .  A
N1029      H1044   1.046       .  S
N1029      H1045   1.046       .  S
C1031      C1032   1.405       .  A
C1031      H1036   1.083       .  S
C1032      C1033   1.420       .  A
C1032      N1037   1.438       .  S
C1033      C1034   1.407       .  A
C1034      C1035   1.413       .  A
C1034      H1038   1.080       .  S
C1035      N1039   1.438       .  S
N1037      H1040   1.045       .  S
N1037      H1041   1.046       .  S
N1039      H1042   1.046       .  S
N1039      H1043   1.045       .  S
C1048      C1049   1.417       .  A
C1048      C1053   1.412       .  A
C1049      C1050   1.402       .  A
C1049      N1054   1.433       .  S
C1050      C1051   1.402       .  A
C1050      H1055   1.083       .  S
C1051      C1052   1.412       .  A
C1051      C1056   1.496       .  S
C1052      C1053   1.409       .  A
C1052      N1057   1.439       .  S
C1053      H1058   1.077       .  S
N1054      H1074   1.046       .  S
N1054      H1075   1.045       .  S
C1056      C1059   1.406       .  A
C1056      C1063   1.412       .  A
N1057      H1072   1.045       .  S
N1057      H1073   1.046       .  S
C1059      C1060   1.410       .  A
C1059      H1064   1.083       .  S
C1060      C1061   1.417       .  A
C1060      N1065   1.438       .  S
C1061      C1062   1.409       .  A
C1062      C1063   1.403       .  A
C1062      H1066   1.083       .  S
C1063      N1067   1.439       .  S
N1065      H1068   1.046       .  S
N1065      H1069   1.046       .  S
N1067      H1070   1.046       .  S
N1067      H1071   1.045       .  S
C1076      C1077   1.415       .  A
C1076      C1081   1.406       .  A
C1077      C1078   1.408       .  A
C1077      N1082   1.437       .  S
C1078      C1079   1.401       .  A
C1078      H1083   1.084       .  S
C1079      C1080   1.410       .  A
C1079      C1084   1.487       .  S
C1080      C1081   1.412       .  A
C1080      N1085   1.437       .  S
C1081      H1086   1.083       .  S
N1082      H1102   1.046       .  S
N1082      H1103   1.046       .  S
C1084      C1087   1.403       .  A
C1084      C1091   1.408       .  A
N1085      H1100   1.045       .  S
N1085      H1101   1.046       .  S
C1087      C1088   1.413       .  A
C1087      H1092   1.084       .  S
C1088      C1089   1.416       .  A
C1088      N1093   1.437       .  S
C1089      C1090   1.407       .  A
C1090      C1091   1.405       .  A
C1090      H1094   1.083       .  S
C1091      N1095   1.438       .  S
N1093      H1096   1.046       .  S
N1093      H1097   1.044       .  S
N1095      H1098   1.046       .  S
N1095      H1099   1.045       .  S
C1104      C1105   1.414       .  A
C1104      C1109   1.401       .  A
C1105      C1106   1.407       .  A
C1105      N1110   1.438       .  S
C1106      C1107   1.404       .  A
C1106      H1111   1.083       .  S
C1107      C1108   1.415       .  A
C1107      C1112   1.495       .  S
C1108      C1109   1.409       .  A
C1108      N1113   1.438       .  S
C1109      H1114   1.084       .  S
N1110      H1130   1.045       .  S
N1110      H1131   1.045       .  S
C1112      C1115   1.400       .  A
C1112      C1119   1.413       .  A
N1113      H1128   1.045       .  S
N1113      H1129   1.046       .  S
C1115      C1116   1.401       .  A
C1115      H1120   1.084       .  S
C1116      C1117   1.420       .  A
C1116      N1121   1.433       .  S
C1117      C1118   1.408       .  A
C1118      C1119   1.413       .  A
C1118      H1122   1.073       .  S
C1119      N1123   1.438       .  S
N1121      H1124   1.046       .  S
N1121      H1125   1.046       .  S
N1123      H1126   1.046       .  S
N1123      H1127   1.045       .  S
C1132      C1133   1.422       .  A
C1132      C1137   1.416       .  A
C1133      C1134   1.418       .  A
C1133      N1138   1.435       .  S
C1134      C1135   1.405       .  A
C1134      H1139   1.083       .  S
C1135      C1136   1.402       .  A
C1135      C1140   1.490       .  S
C1136      C1137   1.398       .  A
C1136      N1141   1.439       .  S
C1137      H1142   1.079       .  S
N1138      H1158   1.046       .  S
N1138      H1159   1.045       .  S
C1140      C1143   1.403       .  A
C1140      C1147   1.408       .  A
N1141      H1156   1.046       .  S
N1141      H1157   1.045       .  S
C1143      C1144   1.407       .  A
C1143      H1148   1.084       .  S
C1144      C1145   1.414       .  A
C1144      N1149   1.437       .  S
C1145      C1146   1.410       .  A
C1146      C1147   1.411       .  A
C1146      H1150   1.083       .  S
C1147      N1151   1.437       .  S
N1149      H1152   1.045       .  S
N1149      H1153   1.046       .  S
N1151      H1154   1.045       .  S
N1151      H1155   1.046       .  S
