geometry optimzed in LAMMPS
_audit_creation_date              2020-12-01 
_audit_creation_method            'lammps2cif' 
_symmetry_space_group_name_H-M    'P1' 
_symmetry_Int_Tables_number       1 
_symmetry_cell_setting            triclinic 
loop_ 
_symmetry_equiv_pos_as_xyz 
  x,y,z 
_cell_length_a                    38.50696334 
_cell_length_b                    39.485957881873446 
_cell_length_c                    38.06610255594869 
_cell_angle_alpha                 96.9532218256698 
_cell_angle_beta                  89.48167719220707 
_cell_angle_gamma                 89.37386967446136 
loop_ 
_atom_site_label 
_atom_site_type_symbol 
_atom_site_fract_x 
_atom_site_fract_y 
_atom_site_fract_z 
_atom_site_charge 
C1          C  0.10377166  0.09235413  0.09615762     0.88000
C2          C  0.12953344  0.06904295  0.11492235    -0.52300
C3          C  0.14896265  0.08639585  0.14191584     0.10900
C4          C  0.14106429  0.12466232  0.14654682     0.21900
C5          C  0.08236645  0.11189547  0.12689105    -0.53000
C6          C  0.10215669  0.12885855  0.15275814     0.11000
C7          C  0.12784830  0.11992692  0.08382283    -0.52500
C8          C  0.14700718  0.13704199  0.11045654     0.11600
H9          H  0.13243511  0.04179921  0.10710654     0.16100
H10         H  0.15652731  0.13863063  0.16779494     0.01800
H11         H  0.05426609  0.11442514  0.12672665     0.16400
H12         H  0.12858063  0.12620142  0.05683507     0.16200
C13         C  0.10258389  0.21688851  0.20444813     0.31500
C14         C  0.11117882  0.26849302  0.25727043     0.31500
C15         C  0.10484843  0.25303004  0.19276822    -0.04700
C16         C  0.07457637  0.22035636  0.23291286    -0.05500
C17         C  0.13507348  0.21310932  0.22697309    -0.05400
C18         C  0.10996342  0.27888527  0.22006137    -0.04700
C19         C  0.07785246  0.24774014  0.25984685    -0.05500
C20         C  0.13973119  0.24037005  0.25453375    -0.05400
C21         C  0.10343943  0.30932729  0.20738755    -0.30700
N22         N  0.09403445  0.30343412  0.17311760     0.15800
C23         C  0.09445258  0.26895438  0.16360085    -0.30800
H24         H  0.08605045  0.25639007  0.13833191     0.17700
C25         C  0.04423655  0.25771337  0.26894922    -0.29700
N26         N  0.51869378  0.28967757  0.18700243     0.14500
C27         C  0.04065232  0.21286033  0.22893242    -0.29700
C28         C  0.15263618  0.22553734  0.28290938    -0.30000
N29         N  0.15498046  0.19138934  0.27465515     0.15000
H30         H  0.15421955  0.23814171  0.30974137     0.17600
C31         C  0.14484189  0.18352544  0.24095910    -0.30000
H32         H  0.13996484  0.15778023  0.22929363     0.17600
H33         H  0.53403518  0.24194007  0.15681851     0.17600
H34         H  0.10389890  0.33435327  0.22248811     0.17700
H35         H  0.52400804  0.33143894  0.22881539     0.17600
C36         C  0.09991318  0.41238965  0.35107757     0.88000
C37         C  0.12396663  0.42770547  0.32320232    -0.52300
C38         C  0.14798354  0.40465761  0.30582358     0.10900
C39         C  0.14445963  0.36905621  0.31802301     0.21900
C40         C  0.08304062  0.38140164  0.32950361    -0.53000
C41         C  0.10641489  0.35840076  0.31269086     0.11000
C42         C  0.12548440  0.39715170  0.37542632    -0.52500
C43         C  0.14857458  0.37511642  0.35795168     0.11600
H44         H  0.12258931  0.45424588  0.31850504     0.16100
H45         H  0.16278166  0.34962182  0.30526929     0.01800
H46         H  0.05517192  0.37757921  0.32837825     0.16400
H47         H  0.12580710  0.40369348  0.40399616     0.16200
C48         C  0.22266211  0.08688627  0.21490125     0.31500
C49         C  0.28502988  0.09332185  0.24932840     0.31500
C50         C  0.22145204  0.08418430  0.25475168    -0.04700
C51         C  0.25022064  0.05982294  0.20193599    -0.05500
C52         C  0.24165303  0.12048047  0.21272529    -0.05400
C53         C  0.25367476  0.08756396  0.27194237    -0.04700
C54         C  0.28339243  0.06421723  0.21886270    -0.05500
C55         C  0.27389572  0.12389821  0.23071881    -0.05400
C56         C  0.25241127  0.06898407  0.29973568    -0.30700
N57         N  0.22076125  0.05531797  0.30142258     0.15800
C58         C  0.20201723  0.06325873  0.27357990    -0.30800
H59         H  0.17603123  0.05439788  0.26737673     0.17700
C60         C  0.29665513  0.03259346  0.22097869    -0.29700
N61         N  0.26747925  0.50449331  0.20959780     0.14500
C62         C  0.24439350  0.02532522  0.19837300    -0.29700
C63         C  0.29582801  0.13937391  0.20908741    -0.30000
N64         N  0.27919116  0.14427000  0.17918940     0.15000
H65         H  0.32386883  0.13956091  0.21127219     0.17600
C66         C  0.24615811  0.13435156  0.18153417    -0.30000
H67         H  0.22931467  0.12982957  0.15883400     0.17600
H68         H  0.21369985  0.50667902  0.19577462     0.17600
H69         H  0.27312538  0.06560346  0.31797130     0.17700
H70         H  0.31595324  0.52208459  0.22995497     0.17600
C71         C  0.38650719  0.12399713  0.05821390     0.88000
C72         C  0.36136867  0.14911852  0.04123200    -0.52300
C73         C  0.34398707  0.17251054  0.06564855     0.10900
C74         C  0.35437957  0.16811774  0.10359885     0.21900
C75         C  0.41076041  0.14731379  0.08214005    -0.53000
C76         C  0.39396662  0.17032078  0.10579763     0.11000
C77         C  0.36315780  0.10765501  0.08432725    -0.52500
C78         C  0.34599520  0.13110129  0.10752876     0.11600
H79         H  0.35673133  0.14737012  0.01299380     0.16100
H80         H  0.34152749  0.18532676  0.12456012     0.01800
H81         H  0.43886953  0.14460538  0.08190117     0.16400
H82         H  0.36022370  0.08035436  0.08442793     0.16200
C83         C  0.12646190  0.10617301  0.39246791     0.88000
C84         C  0.11872325  0.11142989  0.35376340    -0.52300
C85         C  0.14667210  0.12206444  0.33568620     0.10900
C86         C  0.18024337  0.12416732  0.35731036     0.21900
C87         C  0.15723934  0.08124803  0.39054886    -0.53000
C88         C  0.18455627  0.09038937  0.37264078     0.11000
C89         C  0.14284278  0.14112480  0.40840140    -0.52500
C90         C  0.17159802  0.15079508  0.38927324     0.11600
H91         H  0.09263912  0.11065062  0.34311714     0.16100
H92         H  0.20301688  0.12810896  0.34050443     0.01800
H93         H  0.15790593  0.05693423  0.40119054     0.16400
H94         H  0.13256348  0.15654141  0.43179561     0.16200
C95         C  0.41660940  0.26375844  0.25589190     0.31500
C96         C  0.40439299  0.23369262  0.19012534     0.31500
C97         C  0.39318734  0.28471781  0.23334223    -0.04700
C98         C  0.44889954  0.25827487  0.23244785    -0.05500
C99         C  0.40310574  0.22697268  0.25341184    -0.05400
C100        C  0.38449842  0.26744585  0.20004606    -0.04700
C101        C  0.44241803  0.24347677  0.19728317    -0.05500
C102        C  0.39608686  0.21142419  0.21905621    -0.05400
C103        C  0.38351116  0.29143631  0.17654333    -0.30700
N104        N  0.39694145  0.32085047  0.19128002     0.15800
C105        C  0.40140815  0.31785524  0.22601077    -0.30800
H106        H  0.41748419  0.33526591  0.24260208     0.17700
C107        C  0.97243776  0.23499113  0.21071374    -0.29700
N108        N  0.98821515  0.24510116  0.24197258     0.14500
C109        C  0.96717284  0.26651903  0.26308148    -0.29700
C110        C  0.40632168  0.17750671  0.21791279    -0.30000
N111        N  0.42082942  0.17193665  0.24872909     0.15000
H112        H  0.40711755  0.15897200  0.19454291     0.17600
C113        C  0.41874235  0.20156428  0.27059470    -0.30000
H114        H  0.43129128  0.20582020  0.29603311     0.17600
H115        H  0.97285907  0.27778106  0.28971258     0.17600
H116        H  0.38321443  0.28488774  0.14806673     0.17700
H117        H  0.98289520  0.21786309  0.18882562     0.17600
C118        C  0.41037028  0.41861128  0.08261785     0.88000
C119        C  0.39998950  0.38946576  0.05492389    -0.52300
C120        C  0.38134631  0.36521386  0.06801172     0.10900
C121        C  0.37514553  0.37102542  0.10807524     0.21900
C122        C  0.37455276  0.43111743  0.10102462    -0.53000
C123        C  0.35613630  0.40536049  0.11513590     0.11000
C124        C  0.42907197  0.40213396  0.11225213    -0.52500
C125        C  0.40997466  0.37776263  0.12607792     0.11600
H126        H  0.40344407  0.39009593  0.02661723     0.16100
H127        H  0.36188770  0.34876111  0.11690560     0.01800
H128        H  0.36558975  0.45745222  0.10360716     0.16400
H129        H  0.45247145  0.41265504  0.12474778     0.16200
C130        C  0.40978627  0.09119322  0.36380895     0.88000
C131        C  0.39164929  0.12619679  0.37372107    -0.52300
C132        C  0.37969863  0.14075009  0.34516293     0.10900
C133        C  0.38703029  0.11927265  0.30984035     0.21900
C134        C  0.38132886  0.07014673  0.34105204    -0.53000
C135        C  0.36868868  0.08596368  0.31285301     0.11000
C136        C  0.43826842  0.09837998  0.33702316    -0.52500
C137        C  0.42615578  0.11313947  0.30890196     0.11600
H138        H  0.38724583  0.13757484  0.40084575     0.16100
H139        H  0.37915729  0.13052476  0.28641519     0.01800
H140        H  0.37053693  0.04664608  0.34823436     0.16400
H141        H  0.46583139  0.09565391  0.34197523     0.16200
C142        C  0.23190570  0.39272429  0.23923638     0.31500
C143        C  0.28312122  0.38865192  0.18809106     0.31500
C144        C  0.21924100  0.38955214  0.20130493    -0.04700
C145        C  0.25612548  0.42374977  0.24063077    -0.05500
C146        C  0.25766391  0.36255496  0.23870835    -0.05400
C147        C  0.24544851  0.38902588  0.17470245    -0.04700
C148        C  0.28472557  0.41961125  0.21617610    -0.05500
C149        C  0.28348065  0.35982502  0.21163057    -0.05400
C150        C  0.23204995  0.40810120  0.14969971    -0.33600
N151        N  0.19962935  0.41895350  0.15957686     0.15800
C152        C  0.19173944  0.40750334  0.19051464    -0.30800
H153        H  0.16910599  0.41502391  0.20655984     0.17700
C154        C  0.29882104  0.95555881  0.20803710    -0.29700
N155        N  0.27350028  0.97717674  0.21984178     0.14500
C156        C  0.24793844  0.96100765  0.23541114    -0.29700
C157        C  0.31309376  0.34797172  0.22640618    -0.30000
N158        N  0.30697247  0.34448713  0.26049441     0.15000
H159        H  0.33893121  0.34954494  0.21563712     0.17600
C160        C  0.27371867  0.35301326  0.26836363    -0.30000
H161        H  0.26382762  0.35794028  0.29523885     0.17600
H162        H  0.22270616  0.97211929  0.24274594     0.17600
H163        H  0.24610400  0.41611954  0.12746320     0.17700
H164        H  0.32010221  0.96218834  0.19165865     0.17600
C165        C  0.10452698  0.40248237  0.06003498     0.88000
C166        C  0.10937975  0.42876976  0.09221982    -0.52300
C167        C  0.12325156  0.41594958  0.12011271     0.10900
C168        C  0.13029016  0.37730187  0.11448613     0.21900
C169        C  0.14093054  0.38494149  0.05318859    -0.53000
C170        C  0.15397006  0.37064128  0.08189362     0.11000
C171        C  0.08213252  0.37380820  0.07335611    -0.52500
C172        C  0.09609215  0.36073947  0.10212294     0.11600
H173        H  0.10586842  0.45608437  0.09183620     0.16100
H174        H  0.14118620  0.36793614  0.13842633     0.01800
H175        H  0.14410155  0.37328118  0.50657270     0.16400
H176        H  0.05861624  0.36399710  0.06055147     0.16200
C177        C  0.41033888  0.38087855  0.38278731     0.88000
C178        C  0.38909707  0.35868859  0.40632630    -0.52300
C179        C  0.37116457  0.33277265  0.38720256     0.10900
C180        C  0.37771162  0.33047564  0.34741045     0.21900
C181        C  0.43404574  0.35527706  0.35916890    -0.53000
C182        C  0.41693206  0.32898745  0.34047059     0.11000
C183        C  0.38331061  0.39214822  0.35658040    -0.52500
C184        C  0.36650960  0.36540329  0.33790714     0.11600
H185        H  0.38666564  0.36442018  0.43486308     0.16100
H186        H  0.36392314  0.30868555  0.33318606     0.01800
H187        H  0.46134031  0.35976474  0.35434570     0.16400
H188        H  0.37827835  0.41858354  0.35287681     0.16200
C189        C  0.27110215  0.24667984  0.08467753     0.31500
C190        C  0.21994949  0.29542750  0.09736934     0.31500
C191        C  0.28317530  0.28321945  0.09032121    -0.04700
C192        C  0.24431945  0.24732963  0.05507918    -0.05500
C193        C  0.24753887  0.24340435  0.11673409    -0.05400
C194        C  0.25737904  0.30869027  0.09647282    -0.04700
C195        C  0.21698500  0.27162557  0.06290065    -0.05500
C196        C  0.22093091  0.26887626  0.12397062    -0.05400
C197        C  0.27014622  0.33637139  0.08141363    -0.30700
N198        N  0.30166785  0.32829830  0.06664604     0.15800
C199        C  0.30953117  0.29601167  0.07181647    -0.30800
H200        H  0.33123621  0.28113529  0.05987166     0.17700
C201        C  0.23466598  0.26834962  0.51304852    -0.29700
N202        N  0.26259283  0.25044033  0.49933551     0.14500
C203        C  0.28009700  0.23694984  0.52393024    -0.29700
C204        C  0.19201706  0.25153301  0.13412933    -0.30000
N205        N  0.19948700  0.21789373  0.13193338     0.15000
H206        H  0.16578870  0.26174794  0.13614064     0.17600
C207        C  0.23271208  0.21278582  0.12189107    -0.30000
H208        H  0.24292722  0.18797746  0.11155911     0.17600
H209        H  0.30618780  0.22709013  0.51932177     0.17600
H210        H  0.25662385  0.36018051  0.07943319     0.17700
H211        H  0.21854299  0.28447744  0.49872562     0.17600
C212        C  0.28825054  0.27588714  0.38357553     0.31500
C213        C  0.24271061  0.22293633  0.37857858     0.31500
C214        C  0.28992392  0.25221705  0.34886573    -0.04700
C215        C  0.29210013  0.25195245  0.41195107    -0.05500
C216        C  0.24999950  0.28537184  0.38706744    -0.05400
C217        C  0.26679351  0.22441398  0.34625609    -0.04700
C218        C  0.26862353  0.22370535  0.40876907    -0.05500
C219        C  0.22648790  0.25866503  0.38426617    -0.05400
C220        C  0.28521560  0.19725539  0.32869638    -0.30700
N221        N  0.31737672  0.20736329  0.32102053     0.15800
C222        C  0.32032677  0.24061030  0.33238142    -0.30800
H223        H  0.34511991  0.25301716  0.33634008     0.17700
C224        C  0.25859195  0.21910194  0.44219645    -0.29700
N225        N  0.27216421  0.24404434  0.46424595     0.14500
C226        C  0.29311689  0.26352821  0.44738021    -0.29700
C227        C  0.19389464  0.27297057  0.38855953    -0.30000
N228        N  0.19752094  0.30735134  0.39387257     0.15000
H229        H  0.16943409  0.25968081  0.38611914     0.17600
C230        C  0.23177307  0.31499730  0.39393038    -0.30000
H231        H  0.24266574  0.34031189  0.39747675     0.17600
H232        H  0.30267972  0.28791919  0.45918173     0.17600
H233        H  0.27864265  0.17064469  0.32866013     0.17700
H234        H  0.23798540  0.20295918  0.44964850     0.17600
C235        C  0.08969337  0.42081124  0.03020791     0.44000
N236        N  0.04956928  0.44179096  0.99960871     0.02800
C237        C  0.06006814  0.09870701  0.41896032    -0.05000
H238        H  0.03424193  0.11310999  0.05989728     0.08300
C239        C  0.40286746  0.06095758  0.02399654    -0.05400
Co240      Co  0.07048439  0.00920292  0.46546736     0.74200
N241        N  0.03996003  0.06828088  0.02123946    -0.24600
Co242      Co  0.00450575  0.07228259  0.46858515     0.74100
C243        C  0.40765599  0.09800949  0.03334380     0.44100
N244        N  0.44272722  0.47119700  0.01922580     0.02500
N245        N  0.45449265  0.07444568  0.00888668     0.02600
N246        N  0.09994421  0.05728727  0.41959159    -0.45400
H247        H  0.12415321  0.46775915  0.02563398     0.08300
N248        N  0.06419089  0.04384323  0.01779607     0.02800
N249        N  0.45861713  0.07187331  0.44237689     0.02600
C250        C  0.42539842  0.07694151  0.39666188     0.44200
N251        N  0.46958062  0.44951473  0.01698075    -0.24000
C252        C  0.08523952  0.46791479  0.39428405    -0.04900
N253        N  0.05793284  0.41520809  0.01628554    -0.45100
N254        N  0.45239374  0.09098271  0.41637649    -0.45300
C255        C  0.07416859  0.43609437  0.37389435     0.44000
N256        N  0.07049330  0.04793388  0.43296299     0.02800
N257        N  0.47367734  0.43979693  0.43112022    -0.24000
N258        N  0.07337356  0.46549569  0.00165758    -0.24500
N259        N  0.44457974  0.45774026  0.43475558     0.02500
H260        H  0.48546774  0.38845243  0.40840809     0.08400
H261        H  0.39470353  0.02907175  0.40616347     0.08400
N262        N  0.04628606  0.07180677  0.43326830    -0.24600
N263        N  0.43276789  0.04875985  0.00790123    -0.24200
N264        N  0.04257651  0.44727718  0.42274890     0.02800
C265        C  0.07984071  0.07537131  0.06606529     0.44200
C266        C  0.46625989  0.43104169  0.04451032    -0.05400
N267        N  0.43681536  0.04581584  0.44111804    -0.24200
H268        H  0.37889195  0.04695795  0.02408688     0.08400
N269        N  0.08813388  0.04740327  0.04313107    -0.45400
H270        H  0.48252365  0.40936831  0.04853433     0.08400
C271        C  0.43093618  0.41059546  0.40227481     0.44100
C272        C  0.09994318  0.45453375  0.02045180    -0.04900
Co273      Co  0.51307230  0.44816256  0.46757066     0.73800
N274        N  0.42083131  0.46737434  0.04571401    -0.45100
C275        C  0.09651098  0.08917214  0.41053987     0.44300
N276        N  0.04796650  0.42461564  0.39409280    -0.45100
Co277      Co  0.43829841  0.01130469  0.47969143     0.73900
C278        C  0.41531899  0.04688017  0.41336678    -0.05500
C279        C  0.04804305  0.08965695  0.05071190    -0.05000
N280        N  0.06481972  0.47267062  0.42332387    -0.24500
N281        N  0.44067364  0.10361472  0.02378051    -0.45300
H282        H  0.04799380  0.12364198  0.41974255     0.08300
C283        C  0.46778226  0.41009823  0.41104148    -0.05400
Cl284      Cl  0.00659614  0.00918360  0.46624684    -0.48400
C285        C  0.43365158  0.44278777  0.06408805     0.44100
H286        H  0.10747551  0.48329723  0.38950803     0.08300
N287        N  0.41821585  0.44101484  0.41820877    -0.45100
C288        C  0.34369352  0.31085553  0.40093920    -0.14900
C289        C  0.31326137  0.30590447  0.38308061    -0.30100
H290        H  0.35050511  0.29580146  0.42188647     0.14100
H291        H  0.30788734  0.32202658  0.36251794     0.14700
C292        C  0.18538093  0.34728794  0.08030847    -0.14900
C293        C  0.19130571  0.32345091  0.10305641    -0.30100
H294        H  0.20244741  0.34773373  0.05758339     0.14100
H295        H  0.17387891  0.32228525  0.12533857     0.14700
C296        C  0.33382966  0.34276872  0.28562692    -0.14900
C297        C  0.33967467  0.36874577  0.31109907    -0.30100
H298        H  0.35100401  0.32080838  0.28180530     0.14100
H299        H  0.32452809  0.39221995  0.31220396     0.14700
C300        C  0.17693241  0.43804032  0.13961025    -0.14900
C301        C  0.14270083  0.43782752  0.14619845    -0.30100
H302        H  0.18525578  0.44030573  0.11260041     0.14100
H303        H  0.13312018  0.43771838  0.17298783     0.14700
C304        C  0.34641276  0.18491525  0.31897816    -0.14900
C305        C  0.35634306  0.17075090  0.34781656    -0.30100
H306        H  0.35858948  0.17911032  0.29337144     0.14100
H307        H  0.34398568  0.17918950  0.37321838     0.14700
C308        C  0.35770796  0.34360071  0.04575003    -0.14900
C309        C  0.32381216  0.35121096  0.05075295    -0.30100
H310        H  0.36637451  0.31735751  0.03980162     0.14100
H311        H  0.31622739  0.37803776  0.05481679     0.14700
C312        C  0.32271939  0.40913013  0.13732219    -0.14900
C313        C  0.31295928  0.38579750  0.15972068    -0.30100
H314        H  0.30709913  0.43194185  0.13617886     0.14100
H315        H  0.32904545  0.36337245  0.16009033     0.14700
C316        C  0.41869953  0.27900403  0.29478427    -0.14900
C317        C  0.43123687  0.30985756  0.30711004    -0.30100
H318        H  0.40423506  0.26569788  0.31346467     0.14100
H319        H  0.44751852  0.32367870  0.29059209     0.14700
C320        C  0.44730615  0.13437405  0.28756682    -0.14900
C321        C  0.43497244  0.13935243  0.25560418    -0.30100
H322        H  0.46107871  0.15487256  0.30289928     0.14100
H323        H  0.42443604  0.11718745  0.23961678     0.14700
C324        C  0.41193810  0.37081308  0.16350556    -0.14900
C325        C  0.41943630  0.33905160  0.16972290    -0.30100
H326        H  0.39462209  0.38592814  0.18205675     0.14100
H327        H  0.43478063  0.32357469  0.14947505     0.14700
C328        C  0.19193170  0.18385347  0.39663559    -0.14900
C329        C  0.21838038  0.19202667  0.37488607    -0.30100
H330        H  0.18475385  0.20164836  0.41968684     0.14100
H331        H  0.22486407  0.17447791  0.35188737     0.14700
C332        C  0.30255298  0.22180422  0.08336729    -0.14900
C333        C  0.31406219  0.19636494  0.05818680    -0.30100
H334        H  0.31778604  0.22721494  0.10700505     0.14100
H335        H  0.30073571  0.19177310  0.03313521     0.14700
C336        C  0.41163839  0.19054729  0.13565037    -0.14900
C337        C  0.39545729  0.21772630  0.15326240    -0.30100
H338        H  0.43592359  0.18113994  0.14531908     0.14100
H339        H  0.37291130  0.22818007  0.14137579     0.14700
C340        C  0.31945383  0.09849404  0.27060309    -0.14900
C341        C  0.33643083  0.07633101  0.29057846    -0.30100
H342        H  0.32893989  0.12401468  0.27083419     0.14100
H343        H  0.32588081  0.05125208  0.29212258     0.14700
C344        C  0.21244844  0.06598323  0.36267397    -0.14900
C345        C  0.20628666  0.04522320  0.33299649    -0.30100
H346        H  0.23794538  0.07712645  0.36662461     0.14100
H347        H  0.18074385  0.03368470  0.33039995     0.14700
C348        C  0.32190952  0.12303434  0.13526502    -0.14900
C349        C  0.29649681  0.14549924  0.14633524    -0.30100
H350        H  0.32680214  0.10076760  0.14877873     0.14100
H351        H  0.28975922  0.16599260  0.13123014     0.14700
C352        C  0.17634117  0.35896429  0.37510030    -0.14900
C353        C  0.16998772  0.33114373  0.39068728    -0.30100
H354        H  0.20238216  0.36488033  0.36690389     0.14100
H355        H  0.14333621  0.32344094  0.39462990     0.14700
C356        C  0.17562134  0.41269570  0.27863577    -0.14900
C357        C  0.20345620  0.39136258  0.26878869    -0.30100
H358        H  0.17261651  0.43606424  0.26662510     0.14100
H359        H  0.20644297  0.36956230  0.28303510     0.14700
C360        C  0.16123875  0.16851300  0.30056318    -0.14900
C361        C  0.14278589  0.14002793  0.30347906    -0.30100
H362        H  0.17798680  0.17788212  0.32165332     0.14100
H363        H  0.12234854  0.13254970  0.28479796     0.14700
C364        C  0.08460875  0.32991907  0.11801423    -0.14900
C365        C  0.08570386  0.33154601  0.15349843    -0.30100
H366        H  0.08353577  0.30558839  0.10144830     0.14100
H367        H  0.08641394  0.35694153  0.16826110     0.14700
C368        C  0.11703619  0.29829252  0.28593661    -0.14900
C369        C  0.09601046  0.32619227  0.29104712    -0.30100
H370        H  0.14064299  0.29773849  0.30119307     0.14100
H371        H  0.07165955  0.32651100  0.27700694     0.14700
C372        C  0.16963333  0.16669545  0.10634668    -0.14900
C373        C  0.17492775  0.19130202  0.13370562    -0.30100
H374        H  0.18198360  0.16850208  0.08089461     0.14100
H375        H  0.16147014  0.19127923  0.15854615     0.14700
C376        C  0.17849188  0.07235736  0.16279471    -0.14900
C377        C  0.18682890  0.08699358  0.19625671    -0.30100
H378        H  0.19585193  0.05340893  0.14881479     0.14100
H379        H  0.16833405  0.10512151  0.20965969     0.14700
C380        C  0.09670084  0.18870671  0.17445182    -0.14900
C381        C  0.08959884  0.15631623  0.17954066    -0.30100
H382        H  0.10186189  0.19437264  0.14767550     0.14100
H383        H  0.08370353  0.14988789  0.20584604     0.14700
C384        C  0.10150876  0.09459243  0.59011740     0.88000
C385        C  0.12645317  0.07104878  0.60946451    -0.52300
C386        C  0.14519662  0.08820430  0.63705037     0.10900
C387        C  0.13756252  0.12649522  0.64152607     0.21900
C388        C  0.07925908  0.11401079  0.62022743    -0.53000
C389        C  0.09841199  0.13067860  0.64684423     0.11000
C390        C  0.12597937  0.12197293  0.57851425    -0.52500
C391        C  0.14463752  0.13892730  0.60545880     0.11600
H392        H  0.12928914  0.04379680  0.60166048     0.16100
H393        H  0.15231420  0.14020173  0.66344073     0.01800
H394        H  0.05125372  0.11701143  0.61890584     0.16400
H395        H  0.12737533  0.12826472  0.55154406     0.16200
C396        C  0.10117144  0.21985189  0.69592273     0.31500
C397        C  0.10765953  0.27556922  0.74390064     0.31500
C398        C  0.11176811  0.25281059  0.68098081    -0.04700
C399        C  0.06878424  0.23032416  0.71749403    -0.05500
C400        C  0.12769804  0.21524849  0.72490310    -0.05400
C401        C  0.11520858  0.28154507  0.70557037    -0.04700
C402        C  0.07157930  0.25957954  0.74234555    -0.05500
C403        C  0.13095187  0.24459135  0.75003502    -0.05400
C404        C  0.11061104  0.30972155  0.68737006    -0.30700
N405        N  0.10558657  0.29884605  0.65257089     0.15800
C406        C  0.10544999  0.26433727  0.64871392    -0.30800
H407        H  0.09925975  0.24870971  0.62427320     0.17700
C408        C  0.03914623  0.27440151  0.74477525    -0.29700
N409        N  0.51541936  0.23607441  0.75039348     0.14500
C410        C  0.03544716  0.22774125  0.70688422    -0.29700
C411        C  0.13442377  0.23248111  0.78243306    -0.30000
N412        N  0.13319266  0.19815224  0.77874792     0.15000
H413        H  0.13120262  0.24798520  0.80772782     0.17600
C414        C  0.12968708  0.18725593  0.74394941    -0.30000
H415        H  0.12354641  0.16131890  0.73377580     0.17600
H416        H  0.52809635  0.19627672  0.70819610     0.17600
H417        H  0.10990813  0.33614159  0.69888736     0.17700
H418        H  0.52230880  0.28396010  0.78402637     0.17600
C419        C  0.11154755  0.40934885  0.84895408     0.88000
C420        C  0.13763856  0.42876215  0.82593797    -0.52300
C421        C  0.15775237  0.40776889  0.80116994     0.10900
C422        C  0.14943379  0.37013853  0.80255927     0.21900
C423        C  0.09042313  0.38663421  0.82113294    -0.53000
C424        C  0.11033180  0.36569722  0.79758238     0.11000
C425        C  0.13565847  0.38376465  0.86510528    -0.52500
C426        C  0.15582435  0.36373426  0.84072315     0.11600
H427        H  0.14060159  0.45624829  0.82987453     0.16100
H428        H  0.16397184  0.35240441  0.78318485     0.01800
H429        H  0.06227916  0.38529627  0.82180196     0.16400
H430        H  0.13652974  0.38162253  0.89325269     0.16200
C431        C  0.21639550  0.08754522  0.71235581     0.31500
C432        C  0.27715864  0.09258764  0.74970556     0.31500
C433        C  0.21388186  0.08101937  0.75111395    -0.04700
C434        C  0.24520512  0.06210791  0.69823999    -0.05500
C435        C  0.23452499  0.12211595  0.71444631    -0.05400
C436        C  0.24529603  0.08265504  0.76934003    -0.04700
C437        C  0.27796513  0.06649629  0.71627176    -0.05500
C438        C  0.26540868  0.12501526  0.73474959    -0.05400
C439        C  0.24254498  0.06223041  0.79552414    -0.30700
N440        N  0.20953234  0.05161429  0.79709528     0.15800
C441        C  0.19244337  0.06092635  0.76870450    -0.30800
H442        H  0.16556852  0.05531072  0.76254384     0.17700
C443        C  0.29222003  0.03499118  0.71636005    -0.29700
N444        N  0.27808010  0.50934334  0.69961123     0.14500
C445        C  0.24023037  0.02736786  0.69345425    -0.29700
C446        C  0.28787663  0.14365524  0.71699933    -0.30000
N447        N  0.27355295  0.15025808  0.68652425     0.15000
H448        H  0.31562658  0.14341585  0.72074505     0.17600
C449        C  0.24090326  0.13861169  0.68513374    -0.30000
H450        H  0.22624279  0.13469012  0.66084444     0.17600
H451        H  0.22796270  0.51194615  0.67596578     0.17600
H452        H  0.26213954  0.05824584  0.81482628     0.17700
H453        H  0.31968718  0.52600421  0.73322400     0.17600
C454        C  0.39312590  0.12759887  0.57762954     0.88000
C455        C  0.37265588  0.15600533  0.56086888    -0.52300
C456        C  0.35471542  0.17885426  0.58519748     0.10900
C457        C  0.35997627  0.17137520  0.62290391     0.21900
C458        C  0.41650558  0.14694914  0.60578766    -0.53000
C459        C  0.39887077  0.16908878  0.62984191     0.11000
C460        C  0.36483516  0.11149267  0.59932675    -0.52500
C461        C  0.34709549  0.13497751  0.62240102     0.11600
H462        H  0.36957347  0.15561895  0.53250701     0.16100
H463        H  0.34703874  0.19041170  0.64241144     0.01800
H464        H  0.44417272  0.14200783  0.60779935     0.16400
H465        H  0.35876639  0.08452942  0.59618466     0.16200
C466        C  0.11363723  0.10749213  0.89564834     0.88000
C467        C  0.10225190  0.11611317  0.85875133    -0.52300
C468        C  0.12837631  0.12944862  0.84007591     0.10900
C469        C  0.16311980  0.13219672  0.85936613     0.21900
C470        C  0.14519171  0.08394255  0.88830784    -0.53000
C471        C  0.17053395  0.09675267  0.86996089     0.11000
C472        C  0.12936888  0.14149907  0.91401415    -0.52500
C473        C  0.15530334  0.15463440  0.89415295     0.11600
H474        H  0.07581240  0.11355171  0.84922591     0.16100
H475        H  0.18453721  0.14126352  0.84327454     0.01800
H476        H  0.14760383  0.05827643  0.89563819     0.16400
H477        H  0.12129999  0.15342792  0.94002742     0.16200
C478        C  0.40422548  0.27377126  0.77276062     0.31500
C479        C  0.39868624  0.22113099  0.72128953     0.31500
C480        C  0.40851042  0.28298231  0.73449170    -0.04700
C481        C  0.43005501  0.24420282  0.77485618    -0.05500
C482        C  0.36936898  0.25487733  0.77318421    -0.05400
C483        C  0.40492879  0.25578790  0.70864007    -0.04700
C484        C  0.42806220  0.21725032  0.74726663    -0.05500
C485        C  0.36693741  0.22676074  0.74631499    -0.05400
C486        C  0.41007294  0.26728781  0.67639052    -0.30700
N487        N  0.41753044  0.30094668  0.68118790     0.15800
C488        C  0.41649539  0.31121597  0.71685882    -0.30800
H489        H  0.42025914  0.33712353  0.72897005     0.17700
C490        C  0.96739600  0.24956609  0.68555117    -0.29700
N491        N  0.98474898  0.26453887  0.71366758     0.14500
C492        C  0.96287331  0.28416868  0.73523469    -0.29700
C493        C  0.35268728  0.20054470  0.76256943    -0.30000
N494        N  0.34629450  0.21088268  0.79700067     0.15000
H495        H  0.35559116  0.17388798  0.75248465     0.17600
C496        C  0.35508931  0.24387528  0.80346506    -0.30000
H497        H  0.35840625  0.25631158  0.82995670     0.17600
H498        H  0.96877046  0.29320497  0.76243688     0.17600
H499        H  0.40793806  0.25233338  0.65075260     0.17700
H500        H  0.97692877  0.22870828  0.66685881     0.17600
C501        C  0.42129910  0.41506612  0.57845645     0.88000
C502        C  0.40669054  0.38739834  0.55128806    -0.52300
C503        C  0.38816914  0.36370868  0.56563056     0.10900
C504        C  0.38585792  0.36868762  0.60602645     0.21900
C505        C  0.38868869  0.42914148  0.60084648    -0.53000
C506        C  0.37059814  0.40426158  0.61604186     0.11000
C507        C  0.44210617  0.39549893  0.60519462    -0.52500
C508        C  0.42295100  0.37112310  0.61977235     0.11600
H509        H  0.40813135  0.38825670  0.52286983     0.16100
H510        H  0.37004069  0.34858712  0.61598512     0.01800
H511        H  0.38118492  0.45591253  0.60470796     0.16400
H512        H  0.46864714  0.40144268  0.61281441     0.16200
C513        C  0.39487296  0.08580888  0.86925300     0.88000
C514        C  0.36586108  0.09213584  0.89696568    -0.52300
C515        C  0.33744838  0.10752203  0.88553465     0.10900
C516        C  0.34024147  0.11711696  0.84794848     0.21900
C517        C  0.37659491  0.06658652  0.83577123    -0.53000
C518        C  0.34826551  0.08413760  0.82406232     0.11000
C519        C  0.40243886  0.12147815  0.85806415    -0.52500
C520        C  0.37351626  0.13791493  0.84699904     0.11600
H521        H  0.36798540  0.08606136  0.92397865     0.16100
H522        H  0.31630080  0.13001264  0.84028343     0.01800
H523        H  0.38566373  0.04219417  0.82247622     0.16400
H524        H  0.42832099  0.13204829  0.85756828     0.16200
C525        C  0.23755511  0.39826004  0.72911168     0.31500
C526        C  0.29681589  0.39138022  0.68792666     0.31500
C527        C  0.23222878  0.39164795  0.68928654    -0.04700
C528        C  0.26098893  0.42985857  0.73198789    -0.05500
C529        C  0.26266498  0.36935154  0.73574442    -0.05400
C530        C  0.26259867  0.38856197  0.66784941    -0.04700
C531        C  0.29323035  0.42474354  0.71284509    -0.05500
C532        C  0.29275885  0.36493239  0.71369506    -0.05400
C533        C  0.25475660  0.40272335  0.63758961    -0.33600
N534        N  0.22212310  0.41494042  0.64038190     0.15800
C535        C  0.20811281  0.40792534  0.67126599    -0.30800
H536        H  0.18330691  0.41724373  0.68217663     0.17700
C537        C  0.29389443  0.95775016  0.70607805    -0.29700
N538        N  0.26896898  0.98003402  0.71691161     0.14500
C539        C  0.24383812  0.96522652  0.73464077    -0.29700
C540        C  0.31873300  0.35332446  0.73381047    -0.30000
N541        N  0.30626628  0.35170443  0.76658692     0.15000
H542        H  0.34615754  0.35231117  0.72713522     0.17600
C543        C  0.27281004  0.36182793  0.76842323    -0.30000
H544        H  0.25882284  0.36892493  0.79301624     0.17600
H545        H  0.21894871  0.97700102  0.74220456     0.17600
H546        H  0.27241493  0.40691263  0.61637047     0.17700
H547        H  0.31503372  0.96331998  0.68897365     0.17600
C548        C  0.11035223  0.40675786  0.54952970     0.88000
C549        C  0.12913804  0.43343719  0.57426055    -0.52300
C550        C  0.14802825  0.42040849  0.59862816     0.10900
C551        C  0.14637015  0.38141025  0.59791489     0.21900
C552        C  0.13935098  0.38045620  0.53464740    -0.53000
C553        C  0.15779502  0.36634100  0.56049736     0.11000
C554        C  0.08826184  0.38697990  0.57458719    -0.52500
C555        C  0.10772946  0.37360161  0.59983858     0.11600
H556        H  0.12897743  0.46065907  0.57230173     0.16100
H557        H  0.16168349  0.37195047  0.61936375     0.01800
H558        H  0.15392995  0.38230771  0.02756697     0.16400
H559        H  0.06040231  0.38361047  0.57236016     0.16200
C560        C  0.39487592  0.38187521  0.89970066     0.88000
C561        C  0.36826743  0.36477227  0.92320189    -0.52300
C562        C  0.34918686  0.33930724  0.90444063     0.10900
C563        C  0.35808276  0.33439657  0.86498643     0.21900
C564        C  0.41642140  0.35181588  0.88014466    -0.53000
C565        C  0.39683255  0.32737916  0.86201372     0.11000
C566        C  0.37234623  0.39453849  0.87061769    -0.52500
C567        C  0.35331431  0.36940269  0.85245283     0.11600
H568        H  0.36472336  0.37230549  0.95139459     0.16100
H569        H  0.34253571  0.31437999  0.84987440     0.01800
H570        H  0.44452872  0.35089593  0.87832820     0.16400
H571        H  0.37227927  0.42062641  0.86426913     0.16200
C572        C  0.27841512  0.24972596  0.59146203     0.31500
C573        C  0.22358146  0.29185487  0.58026379     0.31500
C574        C  0.28614679  0.28786509  0.59529362    -0.04700
C575        C  0.26243652  0.24396891  0.55497570    -0.05500
C576        C  0.24709198  0.24717176  0.61569947    -0.05400
C577        C  0.25806695  0.30978965  0.58919866    -0.04700
C578        C  0.23350809  0.26527474  0.54867764    -0.05500
C579        C  0.21857293  0.26882582  0.60991928    -0.05400
C580        C  0.27221176  0.33558725  0.57227083    -0.30700
N581        N  0.30663441  0.33009116  0.56782019     0.15800
C582        C  0.31531049  0.30159306  0.58214005    -0.30800
H583        H  0.34053235  0.28917453  0.57989654     0.17700
C584        C  0.20264002  0.27850530  0.03220279    -0.29700
N585        N  0.22237852  0.26301039  0.00619371     0.14500
C586        C  0.24813207  0.24456271  0.01902530    -0.29700
C587        C  0.18906969  0.25018628  0.61510501    -0.30000
N588        N  0.19837312  0.21938870  0.62392949     0.15000
H589        H  0.16312355  0.25651252  0.60729573     0.17600
C590        C  0.23310762  0.21705777  0.62379017    -0.30000
H591        H  0.24674051  0.19305314  0.62301436     0.17600
H592        H  0.27041123  0.23407840  0.00373444     0.17600
H593        H  0.25786221  0.35486509  0.56034259     0.17700
H594        H  0.18329064  0.29770176  0.02848627     0.17600
C595        C  0.27990821  0.26774650  0.89872355     0.31500
C596        C  0.22229224  0.22869299  0.88813284     0.31500
C597        C  0.28400394  0.23056119  0.90470192    -0.04700
C598        C  0.24884250  0.27956703  0.92273075    -0.05500
C599        C  0.26427130  0.26640110  0.86152491    -0.05400
C600        C  0.25474550  0.21089376  0.89937877    -0.04700
C601        C  0.21803827  0.25979867  0.91619963    -0.05500
C602        C  0.23411025  0.24590196  0.85601199    -0.05400
C603        C  0.26198730  0.17978506  0.91010228    -0.30700
N604        N  0.29519405  0.18006933  0.92165652     0.15800
C605        C  0.30883076  0.21113121  0.91878517    -0.30800
H606        H  0.33506455  0.21868331  0.92575155     0.17700
C607        C  0.20159857  0.25932404  0.94785443    -0.29700
N608        N  0.22237857  0.27376344  0.97299541     0.14500
C609        C  0.25047977  0.28678377  0.95868650    -0.29700
C610        C  0.21141270  0.26425502  0.83752724    -0.30000
N611        N  0.22548934  0.29430900  0.83231542     0.15000
H612        H  0.18387673  0.25958715  0.83572936     0.17600
C613        C  0.25780499  0.29546654  0.84549697    -0.30000
H614        H  0.27225864  0.31891121  0.85060937     0.17600
H615        H  0.27380665  0.29371254  0.97339481     0.17600
H616        H  0.24443808  0.15853461  0.90949927     0.17700
H617        H  0.18025521  0.24318550  0.95325483     0.17600
C618        C  0.09084819  0.42518678  0.52260029     0.44000
N619        N  0.04643779  0.44854910  0.50033351     0.02800
C620        C  0.05152295  0.09796313  0.92814307    -0.05000
H621        H  0.03445636  0.11595384  0.55006004     0.08300
C622        C  0.40696668  0.06598605  0.53886131    -0.05400
Co623      Co  0.06496924  0.00721394  0.97238488     0.74200
N624        N  0.04334806  0.07218401  0.51068738    -0.24600
Co625      Co  0.00025725  0.06903978  0.98020776     0.74100
C626        C  0.41418092  0.10182994  0.55205109     0.44100
N627        N  0.44768969  0.46887770  0.51244554     0.02500
N628        N  0.45759557  0.07938074  0.52016808     0.02600
N629        N  0.09275442  0.05703650  0.92485876    -0.45400
H630        H  0.12523094  0.47021004  0.51126360     0.08300
N631        N  0.06744249  0.04754686  0.50898677     0.02800
N632        N  0.45891641  0.06518270  0.93213059     0.02600
C633        C  0.42526797  0.06766539  0.88585978     0.44200
N634        N  0.47497341  0.44794790  0.50958602    -0.24000
C635        C  0.09613626  0.46312422  0.89896120    -0.04900
N636        N  0.05689991  0.42131689  0.51496794    -0.45100
N637        N  0.45050088  0.08413257  0.90653807    -0.45300
C638        C  0.08759506  0.43079550  0.87766605     0.44000
N639        N  0.06509230  0.04765998  0.94171463     0.02800
N640        N  0.46430136  0.43890219  0.93928926    -0.24000
N641        N  0.07090573  0.47135762  0.49885023    -0.24500
N642        N  0.43622885  0.45836665  0.94351039     0.02500
H643        H  0.47211826  0.38587048  0.92123472     0.08400
H644        H  0.39825949  0.01824814  0.89619746     0.08400
N645        N  0.04050022  0.07115784  0.94419354    -0.24600
N646        N  0.43483471  0.05447477  0.51878121    -0.24200
N647        N  0.04978825  0.44265378  0.92209169     0.02800
C648        C  0.07912066  0.07800564  0.55894229     0.44200
C649        C  0.47363912  0.42923680  0.53701100    -0.05400
N650        N  0.43926351  0.03758751  0.93064026    -0.24200
H651        H  0.38279682  0.05249439  0.54022007     0.08400
N652        N  0.08897949  0.05043331  0.53637227    -0.45400
H653        H  0.49129029  0.40853826  0.54070580     0.08400
C654        C  0.41799897  0.40992576  0.91780087     0.44100
C655        C  0.09986111  0.45880752  0.51204623    -0.04900
Co656      Co  0.50655408  0.44688919  0.97235493     0.73800
N657        N  0.42718856  0.46418257  0.53994142    -0.45100
C658        C  0.08673416  0.08857463  0.91545762     0.44300
N659        N  0.05888641  0.41939291  0.89465452    -0.45100
Co660      Co  0.43941134  0.00473108  0.97057785     0.73900
C661        C  0.41887728  0.03638033  0.90209261    -0.05500
C662        C  0.04917007  0.09297768  0.54115888    -0.05000
N663        N  0.07189046  0.46840710  0.92508652    -0.24500
N664        N  0.44615470  0.10781372  0.53929990    -0.45300
H665        H  0.03833935  0.12238750  0.92911618     0.08300
C666        C  0.45554469  0.40828384  0.92282103    -0.05400
Cl667      Cl  0.00081576  0.00617944  0.97366171    -0.48400
C668        C  0.44210523  0.44004705  0.55813784     0.44100
H669        H  0.11863950  0.47886736  0.89657554     0.08300
N670        N  0.40794444  0.44197745  0.93107676    -0.45100
C671        C  0.31966105  0.31946120  0.91765643    -0.14900
C672        C  0.31412588  0.28717009  0.90202434    -0.30100
H673        H  0.30020558  0.33293750  0.93494624     0.14100
H674        H  0.33500840  0.27461238  0.88594969     0.14700
C675        C  0.18627182  0.33919408  0.55435331    -0.14900
C676        C  0.19217690  0.31648826  0.57813060    -0.30100
H677        H  0.20282966  0.33879154  0.53112381     0.14100
H678        H  0.17376157  0.31683418  0.59981138     0.14700
C679        C  0.32756091  0.34823938  0.79603968    -0.14900
C680        C  0.33166021  0.37417615  0.82182407    -0.30100
H681        H  0.34187436  0.32453793  0.79560627     0.14100
H682        H  0.31965534  0.39889334  0.81983267     0.14700
C683        C  0.20533285  0.43178336  0.61418782    -0.14900
C684        C  0.17245221  0.44148230  0.61961925    -0.30100
H685        H  0.21429938  0.42477036  0.58703595     0.14100
H686        H  0.16326521  0.45153796  0.64585379     0.14700
C687        C  0.31549881  0.15098198  0.92804621    -0.14900
C688        C  0.30927272  0.12101572  0.90897402    -0.30100
H689        H  0.34187078  0.15585932  0.93728151     0.14100
H690        H  0.28364030  0.11596521  0.89818148     0.14700
C691        C  0.36314706  0.34207260  0.54546711    -0.14900
C692        C  0.32987035  0.35152250  0.55129155    -0.30100
H693        H  0.37014586  0.31522715  0.54098138     0.14100
H694        H  0.32331689  0.37860402  0.55410279     0.14700
C695        C  0.33894158  0.40967201  0.63975728    -0.14900
C696        C  0.32985675  0.38803374  0.66400198    -0.30100
H697        H  0.32275163  0.43162699  0.63646977     0.14100
H698        H  0.34716529  0.36693625  0.66751416     0.14700
C699        C  0.40762586  0.30374710  0.80121354    -0.14900
C700        C  0.41044955  0.30006413  0.83573903    -0.30100
H701        H  0.40327747  0.32913025  0.79369673     0.14100
H702        H  0.41473719  0.27505618  0.84412673     0.14700
C703        C  0.37479606  0.16939088  0.82916599    -0.14900
C704        C  0.34603325  0.18784382  0.82340508    -0.30100
H705        H  0.39922870  0.17546840  0.81699784     0.14100
H706        H  0.32158842  0.18399739  0.83658189     0.14700
C707        C  0.43265094  0.35174458  0.65016047    -0.14900
C708        C  0.41909142  0.32032083  0.65115054    -0.30100
H709        H  0.44717327  0.36412857  0.67231047     0.14100
H710        H  0.40773557  0.30812428  0.62685489     0.14700
C711        C  0.17722603  0.18525429  0.90532703    -0.14900
C712        C  0.19170208  0.20418837  0.88131915    -0.30100
H713        H  0.18489606  0.18916083  0.93279661     0.14100
H714        H  0.18404835  0.19934095  0.85397760     0.14700
C715        C  0.31044281  0.22728585  0.59849982    -0.14900
C716        C  0.32359969  0.19978674  0.57669190    -0.30100
H717        H  0.32401314  0.23560277  0.62279991     0.14100
H718        H  0.30943023  0.18927368  0.55367416     0.14700
C719        C  0.41401033  0.18681948  0.66259207    -0.14900
C720        C  0.39385743  0.19229718  0.69193364    -0.30100
H721        H  0.43907658  0.19891811  0.66122644     0.14100
H722        H  0.36980061  0.17830622  0.69261572     0.14700
C723        C  0.30987723  0.09733130  0.77374019    -0.14900
C724        C  0.32542790  0.07362455  0.79239892    -0.30100
H725        H  0.31914608  0.12330701  0.77881011     0.14100
H726        H  0.31817254  0.04706940  0.78788248     0.14700
C727        C  0.19947372  0.07564853  0.85593343    -0.14900
C728        C  0.19235090  0.05042680  0.83011278    -0.30100
H729        H  0.22393962  0.08903057  0.85599243     0.14100
H730        H  0.16658926  0.03929885  0.82930586     0.14700
C731        C  0.31767735  0.12752574  0.64492170    -0.14900
C732        C  0.29437025  0.15235358  0.65591872    -0.30100
H733        H  0.31691433  0.10313055  0.65538071     0.14100
H734        H  0.29402033  0.17615178  0.64477348     0.14700
C735        C  0.17983721  0.33619432  0.84916747    -0.14900
C736        C  0.20562913  0.32396012  0.82663302    -0.30100
H737        H  0.17558368  0.32482532  0.87342436     0.14100
H738        H  0.21227577  0.33648652  0.80382643     0.14700
C739        C  0.18848806  0.41827450  0.77845573    -0.14900
C740        C  0.20287740  0.39665894  0.75074501    -0.30100
H741        H  0.20065691  0.44264009  0.78628759     0.14100
H742        H  0.18920706  0.37337436  0.74225997     0.14700
C743        C  0.12932739  0.17935988  0.80875723    -0.14900
C744        C  0.12385385  0.14558353  0.80710768    -0.30100
H745        H  0.13092772  0.19375951  0.83483387     0.14100
H746        H  0.11982110  0.12977671  0.78217511     0.14700
C747        C  0.09501604  0.35222443  0.62665622    -0.14900
C748        C  0.10406490  0.31893807  0.62329669    -0.30100
H749        H  0.08509926  0.36486387  0.65168102     0.14100
H750        H  0.11309907  0.30697930  0.59755478     0.14700
C751        C  0.11357078  0.30611625  0.77127820    -0.14900
C752        C  0.09685084  0.33655635  0.77328970    -0.30100
H753        H  0.13430408  0.30334160  0.78988921     0.14100
H754        H  0.07497054  0.34049658  0.75648364     0.14700
C755        C  0.16706399  0.16864462  0.60081116    -0.14900
C756        C  0.17581994  0.19174820  0.62825040    -0.30100
H757        H  0.17581634  0.17226842  0.57432965     0.14100
H758        H  0.16703609  0.18983323  0.65491965     0.14700
C759        C  0.17374652  0.07384409  0.65883116    -0.14900
C760        C  0.18137673  0.08856762  0.69241223    -0.30100
H761        H  0.19104344  0.05448633  0.64546071     0.14100
H762        H  0.16271002  0.10684462  0.70542525     0.14700
C763        C  0.09701526  0.19029373  0.66727526    -0.14900
C764        C  0.08554284  0.15923252  0.67224150    -0.30100
H765        H  0.10622662  0.19389377  0.64100348     0.14100
H766        H  0.07449103  0.15420966  0.69737707     0.14700
C767        C  0.10016776  0.59083158  0.09413224     0.88000
C768        C  0.12546386  0.56700920  0.11269710    -0.52300
C769        C  0.14417716  0.58364217  0.14061241     0.10900
C770        C  0.13621191  0.62199904  0.14618764     0.21900
C771        C  0.07792148  0.60932535  0.12467231    -0.53000
C772        C  0.09697798  0.62554588  0.15162627     0.11000
C773        C  0.12435023  0.61872199  0.08318349    -0.52500
C774        C  0.14296922  0.63521592  0.11043831     0.11600
H775        H  0.12855647  0.53990538  0.10414754     0.16100
H776        H  0.15116076  0.63573383  0.16810551     0.01800
H777        H  0.04985817  0.61190599  0.12359352     0.16400
H778        H  0.12585163  0.62545495  0.05638453     0.16200
C779        C  0.09526655  0.71452254  0.20036976     0.31500
C780        C  0.10380940  0.77043607  0.24807296     0.31500
C781        C  0.09782958  0.74881573  0.18525230    -0.04700
C782        C  0.06719659  0.72102109  0.22886940    -0.05500
C783        C  0.12785388  0.71275042  0.22324939    -0.05400
C784        C  0.10223103  0.77719758  0.20960259    -0.04700
C785        C  0.07096196  0.75013736  0.25303180    -0.05500
C786        C  0.13211560  0.74223793  0.24842728    -0.05400
C787        C  0.09960289  0.80557544  0.19187983    -0.30700
N788        N  0.09383917  0.79499960  0.15715111     0.15800
C789        C  0.09292606  0.76038475  0.15276837    -0.30800
H790        H  0.08852224  0.74491723  0.12778315     0.17700
C791        C  0.03897077  0.75748223  0.26801018    -0.29700
N792        N  0.51193888  0.77027390  0.21210909     0.14500
C793        C  0.03450595  0.70959640  0.23197967    -0.29700
C794        C  0.14183780  0.72996205  0.27936240    -0.30000
N795        N  0.14279533  0.69565023  0.27508274     0.15000
H796        H  0.13938176  0.74464962  0.30514383     0.17600
C797        C  0.13598666  0.68487428  0.24091941    -0.30000
H798        H  0.13015473  0.65871901  0.23145154     0.17600
H799        H  0.52790713  0.72756953  0.17505855     0.17600
H800        H  0.10186534  0.83189806  0.20331287     0.17700
H801        H  0.51913592  0.81139645  0.25406674     0.17600
C802        C  0.10787537  0.90770072  0.34862200     0.88000
C803        C  0.13275567  0.92622664  0.32386010    -0.52300
C804        C  0.15269968  0.90454462  0.29980700     0.10900
C805        C  0.14482811  0.86713311  0.30296953     0.21900
C806        C  0.08618292  0.88347668  0.32279154    -0.53000
C807        C  0.10559114  0.86163360  0.29972777     0.11000
C808        C  0.13305610  0.88350596  0.36554676    -0.52500
C809        C  0.15284103  0.86288064  0.34130862     0.11600
H810        H  0.13574410  0.95371000  0.32675208     0.16100
H811        H  0.15914722  0.84895286  0.28389122     0.01800
H812        H  0.05811575  0.88176576  0.32468436     0.16400
H813        H  0.13535491  0.88316396  0.39390598     0.16200
C814        C  0.21614455  0.58032953  0.21435409     0.31500
C815        C  0.27898385  0.58607001  0.24793501     0.31500
C816        C  0.21569515  0.57577773  0.25379853    -0.04700
C817        C  0.24397892  0.55377533  0.20004544    -0.05500
C818        C  0.23452581  0.61446416  0.21382248    -0.05400
C819        C  0.24821745  0.57769286  0.26999344    -0.04700
C820        C  0.27782652  0.55873658  0.21573417    -0.05500
C821        C  0.26661957  0.61776930  0.23195748    -0.05400
C822        C  0.24716445  0.55844972  0.29723553    -0.30700
N823        N  0.21435022  0.54839836  0.30153853     0.15800
C824        C  0.19543934  0.55670371  0.27381277    -0.30800
H825        H  0.16821035  0.55113903  0.26971640     0.17700
C826        C  0.29217520  0.52748307  0.21682263    -0.29700
N827        N  0.27231784  0.00994579  0.21049012     0.14500
C828        C  0.23866818  0.51906637  0.19819657    -0.29700
C829        C  0.28776441  0.63583019  0.21207902    -0.30000
N830        N  0.27099410  0.64217192  0.18270775     0.15000
H831        H  0.31575899  0.63661809  0.21438631     0.17600
C832        C  0.23851882  0.63040764  0.18382652    -0.30000
H833        H  0.22203593  0.62647325  0.16080686     0.17600
H834        H  0.21951938  0.01319020  0.19363157     0.17600
H835        H  0.26792303  0.55507182  0.31546340     0.17700
H836        H  0.31910984  0.02655138  0.23594532     0.17600
C837        C  0.38515165  0.62384747  0.06820916     0.88000
C838        C  0.36347125  0.65094009  0.05005217    -0.52300
C839        C  0.34454225  0.67406351  0.07350350     0.10900
C840        C  0.35015860  0.66768992  0.11177843     0.21900
C841        C  0.40763833  0.64517375  0.09595003    -0.53000
C842        C  0.38918606  0.66825070  0.11849588     0.11000
C843        C  0.35791024  0.60754821  0.09054079    -0.52500
C844        C  0.33943377  0.63076479  0.11283279     0.11600
H845        H  0.36173484  0.65039193  0.02155311     0.16100
H846        H  0.33618532  0.68510906  0.13176710     0.01800
H847        H  0.43547583  0.64150569  0.09830524     0.16400
H848        H  0.35363156  0.58030262  0.08917153     0.16200
C849        C  0.12097846  0.60987162  0.39285115     0.88000
C850        C  0.11254487  0.61537822  0.35434609    -0.52300
C851        C  0.13984543  0.62751616  0.33656297     0.10900
C852        C  0.17304757  0.63250882  0.35831480     0.21900
C853        C  0.15324850  0.58694601  0.39025700    -0.53000
C854        C  0.17980489  0.59842384  0.37245084     0.11000
C855        C  0.13516968  0.64526048  0.40983775    -0.52500
C856        C  0.16262337  0.65727518  0.39082217     0.11600
H857        H  0.08678632  0.61221931  0.34312893     0.16100
H858        H  0.19544959  0.64081738  0.34299634     0.01800
H859        H  0.15515413  0.56216201  0.39980855     0.16400
H860        H  0.12509861  0.65882385  0.43436604     0.16200
C861        C  0.39715821  0.77396296  0.26392839     0.31500
C862        C  0.39272460  0.73729305  0.19970606     0.31500
C863        C  0.38836207  0.79509078  0.23352295    -0.04700
C864        C  0.43066278  0.75514066  0.25088728    -0.05500
C865        C  0.37095050  0.74456728  0.26115879    -0.05400
C866        C  0.38546495  0.77550690  0.20037576    -0.04700
C867        C  0.42829562  0.73613847  0.21680593    -0.05500
C868        C  0.36887985  0.72511453  0.22762757    -0.05400
C869        C  0.39651397  0.79541176  0.17511952    -0.30700
N870        N  0.40630315  0.82616487  0.19085292     0.15800
C871        C  0.40217913  0.82611064  0.22628575    -0.30800
H872        H  0.41064487  0.84651279  0.24574307     0.17700
C873        C  0.97008956  0.73655419  0.21260196    -0.29700
N874        N  0.98269052  0.74209315  0.24571788     0.14500
C875        C  0.96173317  0.76443128  0.26580125    -0.29700
C876        C  0.36765279  0.69127875  0.23399927    -0.30000
N877        N  0.37006279  0.68945246  0.26897143     0.15000
H878        H  0.37224018  0.66958263  0.21417437     0.17600
C879        C  0.37001225  0.72139015  0.28566668    -0.30000
H880        H  0.37577441  0.72733777  0.31342924     0.17600
H881        H  0.96463445  0.77203859  0.29388136     0.17600
H882        H  0.39962553  0.78687891  0.14714452     0.17700
H883        H  0.98142013  0.71984495  0.19088953     0.17600
C884        C  0.41535160  0.91694423  0.07380094     0.88000
C885        C  0.39761385  0.89069637  0.04713760    -0.52300
C886        C  0.37903924  0.86745143  0.06246116     0.10900
C887        C  0.37999389  0.87147800  0.10289504     0.21900
C888        C  0.38452964  0.93196596  0.09885054    -0.53000
C889        C  0.36605393  0.90739566  0.11450109     0.11000
C890        C  0.43708421  0.89574071  0.09773435    -0.52500
C891        C  0.41800276  0.87247782  0.11329140     0.11600
H892        H  0.39726959  0.89220870  0.01882238     0.16100
H893        H  0.36567802  0.85069485  0.11353778     0.01800
H894        H  0.37802620  0.95895485  0.10338476     0.16400
H895        H  0.46453979  0.89963168  0.10278820     0.16200
C896        C  0.40139732  0.57958442  0.36488261     0.88000
C897        C  0.37304915  0.59253173  0.39158737    -0.52300
C898        C  0.34739007  0.60996320  0.37766832     0.10900
C899        C  0.35220330  0.61473491  0.33877058     0.21900
C900        C  0.38068378  0.55955595  0.33309603    -0.53000
C901        C  0.35494736  0.57906299  0.31890356     0.11000
C902        C  0.41433212  0.61173475  0.34961539    -0.52500
C903        C  0.38834979  0.62954032  0.33556808     0.11600
H904        H  0.37329858  0.58856683  0.41935535     0.16100
H905        H  0.33127569  0.63107508  0.32977325     0.01800
H906        H  0.38597667  0.53308348  0.32309286     0.16400
H907        H  0.44139735  0.61909331  0.34902517     0.16200
C908        C  0.23434786  0.89531430  0.23002488     0.31500
C909        C  0.29139977  0.89239785  0.18593973     0.31500
C910        C  0.22715032  0.89095045  0.19067987    -0.04700
C911        C  0.25746225  0.92713679  0.23434262    -0.05500
C912        C  0.26044084  0.86656849  0.23400031    -0.05400
C913        C  0.25616398  0.89084474  0.16764074    -0.04700
C914        C  0.28854262  0.92400104  0.21328822    -0.05500
C915        C  0.28944224  0.86410434  0.21012826    -0.05400
C916        C  0.24569101  0.90878034  0.14049193    -0.33600
N917        N  0.21240306  0.91891294  0.14625943     0.15800
C918        C  0.20104146  0.90767474  0.17624556    -0.30800
H919        H  0.17650296  0.91436709  0.18941669     0.17700
C920        C  0.29449362  0.45074702  0.20902299    -0.29700
N921        N  0.26996408  0.47278900  0.22156894     0.14500
C922        C  0.24649469  0.45772460  0.24102470    -0.29700
C923        C  0.31750091  0.85568198  0.22933608    -0.30000
N924        N  0.30795689  0.85582722  0.26322420     0.15000
H925        H  0.34406911  0.85886759  0.22134703     0.17600
C926        C  0.27358010  0.86127605  0.26643479    -0.30000
H927        H  0.26073064  0.86886081  0.29155042     0.17600
H928        H  0.22200119  0.46925908  0.25039690     0.17600
H929        H  0.26206666  0.91681434  0.11988506     0.17700
H930        H  0.31427335  0.45659277  0.19053097     0.17600
C931        C  0.10171251  0.90602529  0.06026918     0.88000
C932        C  0.11638297  0.93394975  0.08693482    -0.52300
C933        C  0.13375763  0.92224483  0.11331941     0.10900
C934        C  0.13414718  0.88306325  0.11244868     0.21900
C935        C  0.13326035  0.88187107  0.04876699    -0.53000
C936        C  0.14975428  0.86896618  0.07644728     0.11000
C937        C  0.07848039  0.88477287  0.08260271    -0.52500
C938        C  0.09605575  0.87265997  0.10983512     0.11600
H939        H  0.11575989  0.96099733  0.08408309     0.16100
H940        H  0.14772612  0.87413787  0.13527851     0.01800
H941        H  0.15784313  0.88421194  0.51848965     0.16400
H942        H  0.05145639  0.87905911  0.07690698     0.16200
C943        C  0.39779062  0.89210484  0.39232523     0.88000
C944        C  0.37618931  0.87009563  0.41607644    -0.52300
C945        C  0.35725036  0.84460777  0.39716209     0.10900
C946        C  0.36203050  0.84403111  0.35729805     0.21900
C947        C  0.41971395  0.86600834  0.36707513    -0.53000
C948        C  0.40091721  0.84099577  0.34835985     0.11000
C949        C  0.37050376  0.90536179  0.36769071    -0.52500
C950        C  0.35217089  0.87973213  0.34931966     0.11600
H951        H  0.37473941  0.87537765  0.44470584     0.16100
H952        H  0.34548404  0.82493687  0.34221853     0.01800
H953        H  0.44714006  0.86912643  0.36165625     0.16400
H954        H  0.36747444  0.93196751  0.36360339     0.16200
C955        C  0.27046054  0.74776124  0.08676266     0.31500
C956        C  0.21600745  0.79351003  0.09178875     0.31500
C957        C  0.28012565  0.78531531  0.09358923    -0.04700
C958        C  0.24798648  0.74682952  0.05378737    -0.05500
C959        C  0.24324855  0.74337749  0.11546586    -0.05400
C960        C  0.25235029  0.80910139  0.09571821    -0.04700
C961        C  0.21889646  0.76973778  0.05695915    -0.05500
C962        C  0.21532624  0.76742775  0.11887923    -0.05400
C963        C  0.26473454  0.83705657  0.08100479    -0.30700
N964        N  0.29791415  0.83110525  0.07020515     0.15800
C965        C  0.30747295  0.79990597  0.07792144    -0.30800
H966        H  0.33156874  0.78687670  0.06970621     0.17700
C967        C  0.20827822  0.78148367  0.52564177    -0.29700
N968        N  0.22884932  0.76688248  0.49993335     0.14500
C969        C  0.25433911  0.74832385  0.51282348    -0.29700
C970        C  0.18643583  0.74960407  0.12809278    -0.30000
N971        N  0.19523197  0.71662955  0.12941367     0.15000
H972        H  0.15991185  0.75870700  0.12772339     0.17600
C973        C  0.22908423  0.71246063  0.12102620    -0.30000
H974        H  0.24074585  0.68781524  0.11282541     0.17600
H975        H  0.27708809  0.73853138  0.49787031     0.17600
H976        H  0.24969954  0.85905499  0.07552470     0.17700
H977        H  0.18876107  0.80048404  0.52179389     0.17600
C978        C  0.28623440  0.77289663  0.39139235     0.31500
C979        C  0.22887656  0.73264436  0.38263168     0.31500
C980        C  0.29123324  0.73577754  0.39694455    -0.04700
C981        C  0.25566422  0.78394127  0.41661446    -0.05500
C982        C  0.26887257  0.77155931  0.35493016    -0.05400
C983        C  0.26216055  0.71563503  0.39283427    -0.04700
C984        C  0.22490197  0.76387787  0.41054077    -0.05500
C985        C  0.23909425  0.75024847  0.35029277    -0.05400
C986        C  0.27055462  0.68466121  0.40315355    -0.30700
N987        N  0.30432583  0.68541415  0.41298950     0.15800
C988        C  0.31710298  0.71672505  0.40976357    -0.30800
H989        H  0.34351037  0.72462739  0.41538980     0.17700
C990        C  0.20823313  0.76386405  0.44194214    -0.29700
N991        N  0.22921637  0.77800576  0.46695710     0.14500
C992        C  0.25757991  0.79071761  0.45262724    -0.29700
C993        C  0.21487348  0.76854356  0.33363348    -0.30000
N994        N  0.22737334  0.79943409  0.32931699     0.15000
H995        H  0.18746019  0.76327592  0.33355132     0.17600
C996        C  0.26044154  0.80103631  0.34035120    -0.30000
H997        H  0.27423895  0.82485450  0.34568422     0.17600
H998        H  0.28099857  0.79737271  0.46728078     0.17600
H999        H  0.25346479  0.66309816  0.40316059     0.17700
H1000       H  0.18666111  0.74801498  0.44736784     0.17600
C1001       C  0.08466534  0.92255814  0.03066180     0.44000
N1002       N  0.04305663  0.94320268  0.00185680     0.02800
C1003       C  0.05589120  0.59997709  0.41941250    -0.05000
H1004       H  0.03305250  0.61235542  0.05352235     0.08300
C1005       C  0.40138485  0.56028240  0.03429357    -0.05400
Co1006     Co  0.06739367  0.51070054  0.46636522     0.74200
N1007       N  0.04146053  0.56793788  0.01476243    -0.24600
Co1008     Co  0.00264922  0.57311198  0.47009702     0.74100
C1009       C  0.40703437  0.59717984  0.04425473     0.44100
N1010       N  0.44566688  0.97103802  0.00975794     0.02500
N1011       N  0.45186813  0.57348497  0.01564555     0.02600
N1012       N  0.09691369  0.55939141  0.41975830    -0.45400
H1013       H  0.11927396  0.96845084  0.02272990     0.08300
N1014       N  0.06552705  0.54328095  0.01358621     0.02800
N1015       N  0.46123864  0.56101174  0.43252351     0.02600
C1016       C  0.42945634  0.56121934  0.38450017     0.44200
N1017       N  0.47268675  0.94960800  0.00718746    -0.24000
C1018       C  0.09419082  0.96343277  0.39583688    -0.04900
N1019       N  0.05198460  0.91698966  0.01889697    -0.45100
N1020       N  0.45449865  0.57814010  0.40509681    -0.45300
C1021       C  0.08477414  0.93047855  0.37651415     0.44000
N1022       N  0.06774893  0.54945353  0.43347684     0.02800
N1023       N  0.46606615  0.94704301  0.43766844    -0.24000
N1024       N  0.06728270  0.96652419  0.00262389    -0.24500
N1025       N  0.43848590  0.96736913  0.44125795     0.02500
H1026       H  0.47352168  0.89461028  0.41620653     0.08400
H1027       H  0.40035720  0.51369286  0.39730276     0.08400
N1028       N  0.04311341  0.57286007  0.43389558    -0.24600
N1029       N  0.43010279  0.54802006  0.01598620    -0.24200
N1030       N  0.04813232  0.94477713  0.42108511     0.02800
C1031       C  0.07774530  0.57452874  0.06280667     0.44200
C1032       C  0.46960791  0.92989269  0.03362096    -0.05400
N1033       N  0.44081156  0.53407745  0.43212680    -0.24200
H1034       H  0.37755222  0.54633390  0.03606533     0.08400
N1035       N  0.08728577  0.54658830  0.04074504    -0.45400
H1036       H  0.48645159  0.90846601  0.03705020     0.08400
C1037       C  0.42059188  0.92040263  0.41120909     0.44100
C1038       C  0.09462494  0.95559068  0.01970212    -0.04900
Co1039     Co  0.50811635  0.95261209  0.47158215     0.73800
N1040       N  0.42393862  0.96605057  0.03611356    -0.45100
C1041       C  0.09226781  0.59120237  0.41065723     0.44300
N1042       N  0.05636261  0.92023147  0.39465575    -0.45100
Co1043     Co  0.44123616  0.50207446  0.47258661     0.73900
C1044       C  0.42095382  0.53187143  0.40307098    -0.05500
C1045       C  0.04758790  0.58919559  0.04493006    -0.05000
N1046       N  0.07051294  0.97023543  0.42220695    -0.24500
N1047       N  0.43920380  0.60280897  0.03194256    -0.45300
H1048       H  0.04332469  0.62471801  0.42058489     0.08300
C1049       C  0.45746423  0.91743944  0.41884462    -0.05400
Cl1050     Cl  0.00361023  0.51011099  0.46862563    -0.48400
C1051       C  0.43745169  0.94105689  0.05381141     0.44100
H1052       H  0.11698372  0.97847607  0.39230919     0.08300
N1053       N  0.41056764  0.95216742  0.42609610    -0.45100
C1054       C  0.32874064  0.82330759  0.41087570    -0.14900
C1055       C  0.32059609  0.79266219  0.39243135    -0.30100
H1056       H  0.31175007  0.83504624  0.43185118     0.14100
H1057       H  0.33947862  0.78132746  0.37299871     0.14700
C1058       C  0.17946162  0.84347981  0.07225659    -0.14900
C1059       C  0.18567871  0.81994109  0.09513034    -0.30100
H1060       H  0.19620923  0.84408004  0.04935251     0.14100
H1061       H  0.16806629  0.81929414  0.11739360     0.14700
C1062       C  0.33236314  0.85993197  0.29100237    -0.14900
C1063       C  0.32876627  0.88319326  0.31970501    -0.30100
H1064       H  0.35539765  0.84403214  0.28761142     0.14100
H1065       H  0.30813611  0.90230869  0.32210088     0.14700
C1066       C  0.19186551  0.93719890  0.12375316    -0.14900
C1067       C  0.15877164  0.94416469  0.13291267    -0.30100
H1068       H  0.19852478  0.93297345  0.09571196     0.14100
H1069       H  0.15180188  0.95181288  0.16039524     0.14700
C1070       C  0.32578006  0.65653151  0.41724244    -0.14900
C1071       C  0.31889999  0.62667888  0.39836407    -0.30100
H1072       H  0.35229745  0.66139943  0.42599476     0.14100
H1073       H  0.29347470  0.62217086  0.38685504     0.14700
C1074       C  0.35200777  0.84664471  0.04427989    -0.14900
C1075       C  0.31937085  0.85498888  0.05489171    -0.30100
H1076       H  0.35916021  0.82026865  0.03591938     0.14100
H1077       H  0.31275614  0.88186640  0.06170997     0.14700
C1078       C  0.33423558  0.91307554  0.13857909    -0.14900
C1079       C  0.32385983  0.89006996  0.16093583    -0.30100
H1080       H  0.31895617  0.93600590  0.13697189     0.14100
H1081       H  0.34016242  0.86786535  0.16241781     0.14700
C1082       C  0.39587942  0.79264997  0.30155488    -0.14900
C1083       C  0.41396101  0.82007197  0.31519188    -0.30100
H1084       H  0.37639101  0.78376683  0.31873738     0.14100
H1085       H  0.43508899  0.82963033  0.30032261     0.14700
C1086       C  0.39297583  0.65944755  0.31660432    -0.14900
C1087       C  0.37880628  0.65903967  0.28430927    -0.30100
H1088       H  0.40305539  0.68251572  0.33106696     0.14100
H1089       H  0.37324688  0.63466513  0.26929856     0.14700
C1090       C  0.43015819  0.85065479  0.13986298    -0.14900
C1091       C  0.41547674  0.85483006  0.17255242    -0.30100
H1092       H  0.44189650  0.82625943  0.12976725     0.14100
H1093       H  0.40434660  0.87957797  0.18254903     0.14700
C1094       C  0.18398795  0.68876060  0.40116513    -0.14900
C1095       C  0.19868677  0.70714178  0.37661559    -0.30100
H1096       H  0.19107973  0.69377870  0.42872658     0.14100
H1097       H  0.19178316  0.70091606  0.34921026     0.14700
C1098       C  0.30247814  0.72383344  0.08858731    -0.14900
C1099       C  0.31598242  0.69852104  0.06419628    -0.30100
H1100       H  0.31546656  0.72904356  0.11365448     0.14100
H1101       H  0.30457633  0.69362822  0.03826864     0.14700
C1102       C  0.40357714  0.68873310  0.15027418    -0.14900
C1103       C  0.38804918  0.71847415  0.16304463    -0.30100
H1104       H  0.42437330  0.67802373  0.16469217     0.14100
H1105       H  0.36848261  0.72924649  0.14717551     0.14700
C1106       C  0.31275390  0.59110969  0.27025388    -0.14900
C1107       C  0.32962069  0.56810688  0.28913776    -0.30100
H1108       H  0.32097006  0.61723829  0.27390682     0.14100
H1109       H  0.32220781  0.54157132  0.28594495     0.14700
C1110       C  0.20804451  0.57559798  0.35978053    -0.14900
C1111       C  0.19960792  0.54896376  0.33595897    -0.30100
H1112       H  0.23272043  0.58827767  0.35778082     0.14100
H1113       H  0.17388432  0.53804237  0.33741203     0.14700
C1114       C  0.31274632  0.62197641  0.13778876    -0.14900
C1115       C  0.28879610  0.64538417  0.15056089    -0.30100
H1116       H  0.31490433  0.59785443  0.14869053     0.14100
H1117       H  0.28487977  0.66858218  0.13884615     0.14700
C1118       C  0.17928479  0.83754491  0.34954479    -0.14900
C1119       C  0.20591704  0.82879095  0.32671473    -0.30100
H1120       H  0.17581809  0.82448371  0.37283179     0.14100
H1121       H  0.21118927  0.84356263  0.30520549     0.14700
C1122       C  0.18404010  0.91461452  0.27790103    -0.14900
C1123       C  0.20052333  0.89214170  0.25238998    -0.30100
H1124       H  0.19447101  0.93996133  0.28429643     0.14100
H1125       H  0.18850723  0.86779310  0.24489314     0.14700
C1126       C  0.13986172  0.67671082  0.30493793    -0.14900
C1127       C  0.13661238  0.64272272  0.30310933    -0.30100
H1128       H  0.13932565  0.69125468  0.33102191     0.14100
H1129       H  0.13469174  0.62645688  0.27815190     0.14700
C1130       C  0.08242138  0.84878972  0.13345468    -0.14900
C1131       C  0.09347841  0.81608701  0.12881748    -0.30100
H1132       H  0.07013268  0.85936217  0.15819294     0.14100
H1133       H  0.10530063  0.80590187  0.10363821     0.14700
C1134       C  0.11044345  0.80157656  0.27438849    -0.14900
C1135       C  0.09155000  0.83085951  0.27807026    -0.30100
H1136       H  0.13371269  0.80039645  0.29004395     0.14100
H1137       H  0.06702284  0.83248658  0.26450240     0.14700
C1138       C  0.16621318  0.66437049  0.10625924    -0.14900
C1139       C  0.17157073  0.68945838  0.13291936    -0.30100
H1140       H  0.17839001  0.66587590  0.08065480     0.14100
H1141       H  0.15792944  0.68985163  0.15784282     0.14700
C1142       C  0.17292056  0.56848236  0.16153468    -0.14900
C1143       C  0.18032851  0.58121258  0.19580464    -0.30100
H1144       H  0.19061296  0.55010996  0.14714197     0.14100
H1145       H  0.16171945  0.59911609  0.20952898     0.14700
C1146       C  0.08976343  0.68500060  0.17184217    -0.14900
C1147       C  0.08346938  0.65289238  0.17801191    -0.30100
H1148       H  0.09562428  0.68933089  0.14477441     0.14100
H1149       H  0.07744917  0.64702553  0.20448095     0.14700
C1150       C  0.10934847  0.60118753  0.58414134     0.88000
C1151       C  0.13373333  0.57605221  0.60183275    -0.52300
C1152       C  0.15352527  0.59134786  0.62938994     0.10900
C1153       C  0.14702829  0.62996180  0.63612868     0.21900
C1154       C  0.08821467  0.62062351  0.61511036    -0.53000
C1155       C  0.10815397  0.63632556  0.64164580     0.11000
C1156       C  0.13498586  0.62853813  0.57344755    -0.52500
C1157       C  0.15450089  0.64379144  0.60111231     0.11600
H1158       H  0.13582340  0.54899542  0.59262377     0.16100
H1159       H  0.16239258  0.64184909  0.65849653     0.01800
H1160       H  0.06036202  0.62491276  0.61411964     0.16400
H1161       H  0.13646099  0.63600972  0.54695985     0.16200
C1162       C  0.11004383  0.72585396  0.69363351     0.31500
C1163       C  0.11311789  0.77570009  0.74919749     0.31500
C1164       C  0.11921317  0.76147242  0.68388011    -0.04700
C1165       C  0.07690719  0.73270614  0.71490423    -0.05500
C1166       C  0.13668255  0.71927160  0.72220690    -0.05400
C1167       C  0.12215910  0.78667499  0.71308286    -0.04700
C1168       C  0.07801216  0.75848936  0.74339077    -0.05500
C1169       C  0.13691613  0.74474198  0.75198511    -0.05400
C1170       C  0.11429163  0.81740146  0.70161606    -0.30700
N1171       N  0.10532786  0.81256786  0.66740537     0.15800
C1172       C  0.10738164  0.77860544  0.65622339    -0.30800
H1173       H  0.09827113  0.76675369  0.63092855     0.17700
C1174       C  0.04445015  0.76776609  0.75167454    -0.29700
N1175       N  0.51395238  0.77251106  0.70509126     0.14500
C1176       C  0.04329116  0.72698288  0.70630407    -0.29700
C1177       C  0.13829160  0.72715666  0.78134165    -0.30000
N1178       N  0.14084212  0.69337641  0.77077113     0.15000
H1179       H  0.13196317  0.73794945  0.80810623     0.17600
C1180       C  0.14149231  0.68846480  0.73527048    -0.30000
H1181       H  0.13972559  0.66352312  0.72026381     0.17600
H1182       H  0.53201321  0.73016266  0.66887541     0.17600
H1183       H  0.11213605  0.84173109  0.71797093     0.17700
H1184       H  0.51890235  0.81286744  0.74841865     0.17600
C1185       C  0.10119085  0.91515267  0.85134239     0.88000
C1186       C  0.12618096  0.93282819  0.82580166    -0.52300
C1187       C  0.14953601  0.91068588  0.80586627     0.10900
C1188       C  0.14506328  0.87385667  0.81412515     0.21900
C1189       C  0.08391156  0.88629655  0.82656649    -0.53000
C1190       C  0.10695529  0.86426646  0.80766573     0.11000
C1191       C  0.12639405  0.89681068  0.87370414    -0.52500
C1192       C  0.14901151  0.87571289  0.85413864     0.11600
H1193       H  0.12605983  0.96015663  0.82468845     0.16100
H1194       H  0.16377045  0.85555337  0.79982538     0.01800
H1195       H  0.05600046  0.88283094  0.82523750     0.16400
H1196       H  0.12591304  0.89963241  0.90245854     0.16200
C1197       C  0.22475296  0.58404257  0.70381327     0.31500
C1198       C  0.27958513  0.58818725  0.74948008     0.31500
C1199       C  0.21748153  0.57481406  0.74057703    -0.04700
C1200       C  0.25521940  0.55953283  0.69220230    -0.05500
C1201       C  0.24242658  0.61874295  0.70983799    -0.05400
C1202       C  0.24524192  0.57711780  0.76401580    -0.04700
C1203       C  0.28504467  0.56356106  0.71512825    -0.05500
C1204       C  0.27034696  0.62125024  0.73415575    -0.05400
C1205       C  0.23858511  0.55504131  0.78831866    -0.30700
N1206       N  0.20711301  0.54101850  0.78189747     0.15800
C1207       C  0.19644451  0.54980041  0.75039320    -0.30800
H1208       H  0.17222575  0.54196349  0.73781587     0.17700
C1209       C  0.29976989  0.53235946  0.71527395    -0.29700
N1210       N  0.26820627  0.01211584  0.70564186     0.14500
C1211       C  0.25169291  0.52472559  0.68457773    -0.29700
C1212       C  0.29540349  0.63990919  0.71954733    -0.30000
N1213       N  0.28558607  0.64612873  0.68721335     0.15000
H1214       H  0.32225863  0.63979224  0.72732545     0.17600
C1215       C  0.25295924  0.63525256  0.68171328    -0.30000
H1216       H  0.24117373  0.63190897  0.65579354     0.17600
H1217       H  0.21546000  0.01496858  0.68882674     0.17600
H1218       H  0.25393458  0.55230286  0.81151169     0.17700
H1219       H  0.31476293  0.02890076  0.73110324     0.17600
C1220       C  0.38534352  0.62322818  0.55794643     0.88000
C1221       C  0.36397858  0.64928495  0.53817354    -0.52300
C1222       C  0.34542309  0.67347673  0.56054051     0.10900
C1223       C  0.35062054  0.66896703  0.59929659     0.21900
C1224       C  0.40785306  0.64579483  0.58476239    -0.53000
C1225       C  0.38971845  0.66966298  0.60669865     0.11000
C1226       C  0.35768818  0.60828170  0.58137707    -0.52500
C1227       C  0.33995273  0.63273181  0.60330426     0.11600
H1228       H  0.36260126  0.64768077  0.50955841     0.16100
H1229       H  0.33420439  0.68681690  0.61614163     0.01800
H1230       H  0.43559496  0.64178881  0.58756873     0.16400
H1231       H  0.35346868  0.58118355  0.58161883     0.16200
C1232       C  0.11840858  0.60830947  0.89627383     0.88000
C1233       C  0.10200627  0.63231324  0.87113172    -0.52300
C1234       C  0.12533493  0.64220322  0.84681862     0.10900
C1235       C  0.16180211  0.62751290  0.85008808     0.21900
C1236       C  0.13474111  0.57915523  0.87166349    -0.53000
C1237       C  0.15660989  0.58905014  0.84770597     0.11000
C1238       C  0.14978896  0.62933781  0.91287725    -0.52500
C1239       C  0.17199742  0.64056713  0.88794350     0.11600
H1240       H  0.07517785  0.64109124  0.87283044     0.16100
H1241       H  0.18140407  0.63407136  0.83057804     0.01800
H1242       H  0.12590983  0.55289740  0.86967611     0.16400
H1243       H  0.15235434  0.63686953  0.94109645     0.16200
C1244       C  0.40075505  0.76861701  0.75817052     0.31500
C1245       C  0.39463754  0.73104188  0.69510280     0.31500
C1246       C  0.38920449  0.78922859  0.72791813    -0.04700
C1247       C  0.43447823  0.75138668  0.74379624    -0.05500
C1248       C  0.37629152  0.73799901  0.75748269    -0.05400
C1249       C  0.38443256  0.76856910  0.69565598    -0.04700
C1250       C  0.43181214  0.73249992  0.70960359    -0.05500
C1251       C  0.37379801  0.71798565  0.72467387    -0.05400
C1252       C  0.39328750  0.78719479  0.66881220    -0.30700
N1253       N  0.40543512  0.81765990  0.68214510     0.15800
C1254       C  0.40346348  0.81947853  0.71803192    -0.30800
H1255       H  0.41641438  0.83878489  0.73559450     0.17700
C1256       C  0.97052145  0.74532437  0.69460644    -0.29700
N1257       N  0.98873703  0.75465956  0.72448034     0.14500
C1258       C  0.96769607  0.76951236  0.75039363    -0.29700
C1259       C  0.37402953  0.68428611  0.73169683    -0.30000
N1260       N  0.37603161  0.68310473  0.76684856     0.15000
H1261       H  0.37843073  0.66231567  0.71214956     0.17600
C1262       C  0.37648373  0.71538533  0.78269453    -0.30000
H1263       H  0.38191276  0.72190541  0.81046090     0.17600
H1264       H  0.97498251  0.77700587  0.77758742     0.17600
H1265       H  0.39688716  0.77658154  0.64137938     0.17700
H1266       H  0.98064841  0.73152119  0.67037499     0.17600
C1267       C  0.41399128  0.92594636  0.58307813     0.88000
C1268       C  0.40468962  0.89658041  0.55535205    -0.52300
C1269       C  0.38667449  0.87185431  0.56808460     0.10900
C1270       C  0.37944313  0.87749800  0.60807382     0.21900
C1271       C  0.37779048  0.93762580  0.60094788    -0.53000
C1272       C  0.35983455  0.91154502  0.61493426     0.11000
C1273       C  0.43287388  0.90976355  0.61291251    -0.52500
C1274       C  0.41419887  0.88473755  0.62619641     0.11600
H1275       H  0.40877081  0.89702913  0.52708476     0.16100
H1276       H  0.36595137  0.85536134  0.61697350     0.01800
H1277       H  0.36816191  0.96373026  0.60322548     0.16400
H1278       H  0.45709865  0.91930243  0.62439222     0.16200
C1279       C  0.39962589  0.57559772  0.86815805     0.88000
C1280       C  0.37516902  0.59229871  0.89672355    -0.52300
C1281       C  0.35086566  0.61223025  0.88480793     0.10900
C1282       C  0.35218558  0.61442314  0.84473829     0.21900
C1283       C  0.37472363  0.55656311  0.83946902    -0.53000
C1284       C  0.34991397  0.57789667  0.82643218     0.11000
C1285       C  0.41434179  0.60520817  0.84966708    -0.52500
C1286       C  0.38918812  0.62492777  0.83689723     0.11600
H1287       H  0.37846503  0.59075847  0.92486349     0.16100
H1288       H  0.33227743  0.63241941  0.83688556     0.01800
H1289       H  0.37734551  0.52964915  0.82982735     0.16400
H1290       H  0.44188876  0.60957244  0.84624238     0.16200
C1291       C  0.22879734  0.89995234  0.73257564     0.31500
C1292       C  0.28400415  0.89508374  0.68558829     0.31500
C1293       C  0.21966128  0.89602407  0.69361631    -0.04700
C1294       C  0.25290904  0.93125664  0.73530151    -0.05500
C1295       C  0.25440641  0.87038522  0.73513439    -0.05400
C1296       C  0.24778021  0.89477488  0.66907554    -0.04700
C1297       C  0.28327062  0.92678182  0.71301012    -0.05500
C1298       C  0.28222285  0.86692306  0.70990380    -0.05400
C1299       C  0.23698212  0.91375925  0.64289121    -0.33600
N1300       N  0.20467218  0.92597315  0.65068862     0.15800
C1301       C  0.19394680  0.91482698  0.68092364    -0.30800
H1302       H  0.17101959  0.92381743  0.69596009     0.17700
C1303       C  0.30353563  0.45523994  0.70394583    -0.29700
N1304       N  0.27718229  0.47701459  0.71027505     0.14500
C1305       C  0.25126197  0.46299900  0.72761766    -0.29700
C1306       C  0.31063020  0.85617995  0.72733139    -0.30000
N1307       N  0.30235547  0.85553094  0.76149431     0.15000
H1308       H  0.33720837  0.85651197  0.71787104     0.17600
C1309       C  0.26845009  0.86323655  0.76662604    -0.30000
H1310       H  0.25640157  0.86939804  0.79247208     0.17600
H1311       H  0.22583264  0.47453010  0.73290761     0.17600
H1312       H  0.25283340  0.92118808  0.62158954     0.17700
H1313       H  0.32658376  0.46057545  0.68934334     0.17600
C1314       C  0.11028944  0.90742605  0.55221161     0.88000
C1315       C  0.11668903  0.93523379  0.58250093    -0.52300
C1316       C  0.13156774  0.92409475  0.61055928     0.10900
C1317       C  0.13801180  0.88521213  0.60722866     0.21900
C1318       C  0.14614309  0.88876874  0.54470514    -0.53000
C1319       C  0.16016787  0.87585538  0.57384903     0.11000
C1320       C  0.08801617  0.88052197  0.56825161    -0.52500
C1321       C  0.10293596  0.86899509  0.59717330     0.11600
H1322       H  0.11277204  0.96233469  0.58095511     0.16100
H1323       H  0.14980266  0.87686433  0.63124854     0.01800
H1324       H  0.14101777  0.87495692  0.02132677     0.16400
H1325       H  0.06397896  0.87035419  0.55689300     0.16200
C1326       C  0.40049879  0.88416401  0.88718809     0.88000
C1327       C  0.38043123  0.85934833  0.90947257    -0.52300
C1328       C  0.36094514  0.83512399  0.88916177     0.10900
C1329       C  0.36532125  0.83735428  0.84975951     0.21900
C1330       C  0.42259439  0.86053606  0.86003756    -0.53000
C1331       C  0.40411573  0.83610554  0.84045759     0.11000
C1332       C  0.37195159  0.89838789  0.86441055    -0.52500
C1333       C  0.35400887  0.87336208  0.84456046     0.11600
H1334       H  0.38030857  0.86199383  0.93818216     0.16100
H1335       H  0.35014070  0.81779093  0.83373952     0.01800
H1336       H  0.44990411  0.86444915  0.85468393     0.16400
H1337       H  0.36758416  0.92536254  0.86280012     0.16200
C1338       C  0.27770040  0.75138352  0.57751248     0.31500
C1339       C  0.22583117  0.79960558  0.59004729     0.31500
C1340       C  0.28900294  0.78794312  0.58151602    -0.04700
C1341       C  0.24999279  0.75058478  0.54876497    -0.05500
C1342       C  0.25585900  0.74915636  0.61095240    -0.05400
C1343       C  0.26304509  0.81312046  0.58760334    -0.04700
C1344       C  0.22223052  0.77459433  0.55649601    -0.05500
C1345       C  0.22827797  0.77383804  0.61751079    -0.05400
C1346       C  0.27572814  0.84101030  0.57293155    -0.30700
N1347       N  0.30756200  0.83314344  0.55872463     0.15800
C1348       C  0.31527993  0.80069550  0.56326897    -0.30800
H1349       H  0.33721633  0.78594205  0.55167372     0.17700
C1350       C  0.21087171  0.77675855  0.02379449    -0.29700
N1351       N  0.23493848  0.76144164  0.00180048     0.14500
C1352       C  0.25791808  0.74382420  0.01895696    -0.29700
C1353       C  0.20032171  0.75548742  0.62810193    -0.30000
N1354       N  0.20958676  0.72238291  0.62783943     0.15000
H1355       H  0.17362227  0.76423282  0.62864078     0.17600
C1356       C  0.24318170  0.71848860  0.61875019    -0.30000
H1357       H  0.25554910  0.69384916  0.61128057     0.17600
H1358       H  0.28168771  0.73273768  0.00719553     0.17600
H1359       H  0.26235778  0.86501888  0.57152603     0.17700
H1360       H  0.19116522  0.79400898  0.01613545     0.17600
C1361       C  0.28028262  0.77195026  0.88103094     0.31500
C1362       C  0.23273076  0.72018956  0.87529323     0.31500
C1363       C  0.29523899  0.73613644  0.87046077    -0.04700
C1364       C  0.25954254  0.76763498  0.91448397    -0.05500
C1365       C  0.25084720  0.77472229  0.85415571    -0.05400
C1366       C  0.27035568  0.70951954  0.86707766    -0.04700
C1367       C  0.23500239  0.74148953  0.91108832    -0.05500
C1368       C  0.22623488  0.74779387  0.85127030    -0.05400
C1369       C  0.28571744  0.68211229  0.87915854    -0.30700
N1370       N  0.31772661  0.69060318  0.89090630     0.15800
C1371       C  0.32414881  0.72286391  0.88516055    -0.30800
H1372       H  0.34650596  0.73707411  0.89535169     0.17700
C1373       C  0.22017014  0.73994955  0.94312906    -0.29700
N1374       N  0.23586701  0.76335453  0.96589563     0.14500
C1375       C  0.26012976  0.78042568  0.94936339    -0.29700
C1376       C  0.19413484  0.76298022  0.84922701    -0.30000
N1377       N  0.19767078  0.79689235  0.85197798     0.15000
H1378       H  0.16975373  0.75088998  0.85398311     0.17600
C1379       C  0.23171276  0.80425811  0.85320502    -0.30000
H1380       H  0.24180062  0.82961277  0.85987657     0.17600
H1381       H  0.27823889  0.79853984  0.96226863     0.17600
H1382       H  0.27238004  0.65890151  0.88296002     0.17700
H1383       H  0.20170171  0.72154878  0.95046245     0.17600
C1384       C  0.09395369  0.92421614  0.52248893     0.44000
N1385       N  0.05048145  0.94694318  0.49813123     0.02800
C1386       C  0.05585681  0.59638773  0.92440367    -0.05000
H1387       H  0.04029310  0.62275969  0.54563460     0.08300
C1388       C  0.40385337  0.55904876  0.52591020    -0.05400
Co1389     Co  0.07009768  0.50604110  0.96985649     0.74200
N1390       N  0.04342645  0.57484921  0.51100842    -0.24600
Co1391     Co  0.00214638  0.56790901  0.97236164     0.74100
C1392       C  0.40824012  0.59624716  0.53526574     0.44100
N1393       N  0.44447763  0.97746445  0.51802127     0.02500
N1394       N  0.45514327  0.57303184  0.50976817     0.02600
N1395       N  0.10013656  0.56045667  0.93010149    -0.45400
H1396       H  0.12823225  0.97021736  0.51408163     0.08300
N1397       N  0.06702589  0.54975453  0.50930748     0.02800
N1398       N  0.45590863  0.56005722  0.93760652     0.02600
C1399       C  0.42719109  0.55673343  0.88732959     0.44200
N1400       N  0.47122344  0.95574040  0.51577009    -0.24000
C1401       C  0.08544880  0.96797405  0.89908732    -0.04900
N1402       N  0.06064130  0.91965657  0.51269168    -0.45100
N1403       N  0.45175587  0.57438910  0.90793007    -0.45300
C1404       C  0.07516750  0.93726844  0.87623559     0.44000
N1405       N  0.07055540  0.54699328  0.93928159     0.02800
N1406       N  0.46900632  0.94116034  0.92982278    -0.24000
N1407       N  0.07463995  0.97008799  0.49792069    -0.24500
N1408       N  0.44096178  0.96072030  0.93317611     0.02500
H1409       H  0.47684778  0.88790092  0.91151722     0.08400
H1410       H  0.39690271  0.51056166  0.90206475     0.08400
N1411       N  0.04399230  0.56815539  0.93724715    -0.24600
N1412       N  0.43375335  0.54701448  0.50942453    -0.24200
N1413       N  0.04130336  0.94584622  0.92406644     0.02800
C1414       C  0.08550474  0.58502359  0.55353371     0.44200
C1415       C  0.46880188  0.93821682  0.54405590    -0.05400
N1416       N  0.43491831  0.53373736  0.93825819    -0.24200
H1417       H  0.38009266  0.54476589  0.52646193     0.08400
N1418       N  0.09184653  0.55485502  0.53353070    -0.45400
H1419       H  0.48554183  0.91701874  0.54853257     0.08400
C1420       C  0.42298096  0.91202389  0.90718559     0.44100
C1421       C  0.10321675  0.95796561  0.51247025    -0.04900
Co1422     Co  0.51031022  0.94915590  0.96441768     0.73800
N1423       N  0.42330544  0.97438143  0.54533357    -0.45100
C1424       C  0.09365093  0.59192782  0.92066404     0.44300
N1425       N  0.04803870  0.92460606  0.89449081    -0.45100
Co1426     Co  0.43566953  0.50308821  0.97949731     0.73900
C1427       C  0.41692705  0.52933456  0.90798759    -0.05500
C1428       C  0.05322163  0.59847394  0.53814369    -0.05000
N1429       N  0.06364070  0.97128188  0.92718654    -0.24500
N1430       N  0.44097484  0.60223187  0.52464075    -0.45300
H1431       H  0.04114963  0.61987434  0.92439266     0.08300
C1432       C  0.46040076  0.91043284  0.91319948    -0.05400
Cl1433     Cl  0.00562858  0.50505393  0.96882683    -0.48400
C1434       C  0.43664260  0.95029738  0.56414132     0.44100
H1435       H  0.10787992  0.98371685  0.89629054     0.08300
N1436       N  0.41298232  0.94435526  0.91975158    -0.45100
C1437       C  0.33497540  0.80986005  0.90119505    -0.14900
C1438       C  0.30604072  0.80195025  0.88124862    -0.30100
H1439       H  0.34072597  0.79656704  0.92381696     0.14100
H1440       H  0.30059423  0.81843815  0.86114084     0.14700
C1441       C  0.19091222  0.85134883  0.57218818    -0.14900
C1442       C  0.19698613  0.82782643  0.59543576    -0.30100
H1443       H  0.20769408  0.85104241  0.54914185     0.14100
H1444       H  0.17989643  0.82749530  0.61816556     0.14700
C1445       C  0.32808328  0.85554016  0.78793884    -0.14900
C1446       C  0.32828933  0.87834445  0.81724451    -0.30100
H1447       H  0.34961461  0.83774216  0.78218874     0.14100
H1448       H  0.30957970  0.89925439  0.82124569     0.14700
C1449       C  0.18474784  0.94662922  0.62989895    -0.14900
C1450       C  0.15042058  0.94808130  0.63503324    -0.30100
H1451       H  0.19432916  0.94760897  0.60305112     0.14100
H1452       H  0.13975338  0.95099493  0.66164472     0.14700
C1453       C  0.34119232  0.66919295  0.90698807    -0.14900
C1454       C  0.33231556  0.63704345  0.90927760    -0.30100
H1455       H  0.36865307  0.67486409  0.90453426     0.14100
H1456       H  0.30569086  0.63060082  0.91471735     0.14700
C1457       C  0.36516572  0.84929713  0.54476849    -0.14900
C1458       C  0.33109409  0.85673249  0.54612783    -0.30100
H1459       H  0.37460955  0.82323104  0.54000158     0.14100
H1460       H  0.32318436  0.88348532  0.55000772     0.14700
C1461       C  0.32597998  0.91500075  0.63647350    -0.14900
C1462       C  0.31574114  0.89208739  0.65920045    -0.30100
H1463       H  0.31017480  0.93750428  0.63440403     0.14100
H1464       H  0.33223566  0.87008130  0.66087314     0.14700
C1465       C  0.40069627  0.78744411  0.79533870    -0.14900
C1466       C  0.41715342  0.81623279  0.80714602    -0.30100
H1467       H  0.38360404  0.77740217  0.81414459     0.14100
H1468       H  0.43637593  0.82722631  0.79107950     0.14700
C1469       C  0.39547864  0.65335836  0.81604263    -0.14900
C1470       C  0.38123551  0.65279636  0.78374220    -0.30100
H1471       H  0.40789987  0.67595606  0.82898455     0.14100
H1472       H  0.37237575  0.62873032  0.77023947     0.14700
C1473       C  0.42001097  0.87149048  0.66060990    -0.14900
C1474       C  0.42493415  0.83784196  0.65983812    -0.30100
H1475       H  0.40748474  0.88543127  0.68372400     0.14100
H1476       H  0.43521125  0.82446683  0.63515672     0.14700
C1477       C  0.19972013  0.66755931  0.89483680    -0.14900
C1478       C  0.20558001  0.69118679  0.87183478    -0.30100
H1479       H  0.21465663  0.66832398  0.91891964     0.14100
H1480       H  0.18868139  0.69081650  0.84917174     0.14700
C1481       C  0.30946265  0.72684833  0.57482924    -0.14900
C1482       C  0.31797955  0.69900760  0.55107921    -0.30100
H1483       H  0.32719512  0.73352764  0.59647391     0.14100
H1484       H  0.30264710  0.69277113  0.52749074     0.14700
C1485       C  0.40523083  0.68938704  0.63866489    -0.14900
C1486       C  0.38573960  0.71197476  0.65978419    -0.30100
H1487       H  0.43154110  0.68346265  0.64607731     0.14100
H1488       H  0.35985082  0.71840619  0.65227013     0.14700
C1489       C  0.30911717  0.59250155  0.77753089    -0.14900
C1490       C  0.32389940  0.56857604  0.79667757    -0.30100
H1491       H  0.31734825  0.61853869  0.78336487     0.14100
H1492       H  0.31631862  0.54212542  0.79149491     0.14700
C1493       C  0.16065132  0.56769636  0.81440043    -0.14900
C1494       C  0.18359457  0.54186134  0.81102304    -0.30100
H1495       H  0.15330531  0.58015129  0.79162870     0.14100
H1496       H  0.19252975  0.53170822  0.83473340     0.14700
C1497       C  0.31395862  0.62671704  0.63074169    -0.14900
C1498       C  0.31059011  0.64954063  0.66016264    -0.30100
H1499       H  0.29773448  0.60427804  0.62698060     0.14100
H1500       H  0.32994189  0.66890469  0.66638800     0.14700
C1501       C  0.17371808  0.85343964  0.86866818    -0.14900
C1502       C  0.16922515  0.82012276  0.85953263    -0.30100
H1503       H  0.19855873  0.86409162  0.87687028     0.14100
H1504       H  0.14318976  0.81086871  0.85358094     0.14700
C1505       C  0.17969792  0.92047647  0.78203489    -0.14900
C1506       C  0.19589410  0.89725550  0.75694752    -0.30100
H1507       H  0.18909323  0.94641855  0.78614659     0.14100
H1508       H  0.18392532  0.87246806  0.75176841     0.14700
C1509       C  0.13843875  0.66599747  0.79206969    -0.14900
C1510       C  0.11910032  0.66764830  0.82194617    -0.30100
H1511       H  0.15275340  0.64272762  0.78283111     0.14100
H1512       H  0.10157202  0.68903642  0.82956698     0.14700
C1513       C  0.09184053  0.83900762  0.61399184    -0.14900
C1514       C  0.09546998  0.84087018  0.64908738    -0.30100
H1515       H  0.08915040  0.81468710  0.59769798     0.14100
H1516       H  0.09732479  0.86620103  0.66386117     0.14700
C1517       C  0.11676119  0.80451731  0.77934842    -0.14900
C1518       C  0.09654511  0.83309873  0.78401606    -0.30100
H1519       H  0.13953725  0.80297983  0.79538998     0.14100
H1520       H  0.07315837  0.83464423  0.76862074     0.14700
C1521       C  0.17827503  0.67324279  0.59935345    -0.14900
C1522       C  0.18612531  0.69478509  0.62872127    -0.30100
H1523       H  0.18888040  0.67785815  0.57385954     0.14100
H1524       H  0.17459170  0.69254096  0.65418339     0.14700
C1525       C  0.18274328  0.57486786  0.64861500    -0.14900
C1526       C  0.19091673  0.58734036  0.68253929    -0.30100
H1527       H  0.19940833  0.55578847  0.63381556     0.14100
H1528       H  0.17235728  0.60508573  0.69659505     0.14700
C1529       C  0.10721446  0.69748608  0.66299431    -0.14900
C1530       C  0.09622365  0.66566872  0.66699691    -0.30100
H1531       H  0.11655500  0.70261836  0.63722398     0.14100
H1532       H  0.08494710  0.66032961  0.69194059     0.14700
C1533       C  0.59489084  0.10897227  0.09168435     0.88000
C1534       C  0.62177670  0.09085943  0.11461103    -0.52300
C1535       C  0.64416447  0.11280487  0.13458740     0.10900
C1536       C  0.63789186  0.14996286  0.12838838     0.21900
C1537       C  0.57693277  0.13644320  0.11882563    -0.53000
C1538       C  0.59964473  0.15846164  0.13740663     0.11000
C1539       C  0.61754759  0.12969855  0.06924460    -0.52500
C1540       C  0.63989459  0.15067742  0.08826215     0.11600
H1541       H  0.62307222  0.06339442  0.11458490     0.16100
H1542       H  0.65646682  0.16736298  0.14310301     0.01800
H1543       H  0.54894261  0.13948203  0.12141572     0.16400
H1544       H  0.61558412  0.12845581  0.04064780     0.16200
C1545       C  0.60450658  0.24897936  0.19215794     0.31500
C1546       C  0.59597333  0.30446922  0.24121019     0.31500
C1547       C  0.63396850  0.27560275  0.19299831    -0.04700
C1548       C  0.57299873  0.27161590  0.18704734    -0.05500
C1549       C  0.60088808  0.24146681  0.23054138    -0.05400
C1550       C  0.62955740  0.30455684  0.21914760    -0.04700
C1551       C  0.56899943  0.30034522  0.21200287    -0.05500
C1552       C  0.59670097  0.26970114  0.25539550    -0.05400
C1553       C  0.64048882  0.33252936  0.20356048    -0.30700
N1554       N  0.64987813  0.32271239  0.16985694     0.15800
C1555       C  0.64680786  0.28857087  0.16316267    -0.30800
H1556       H  0.64763768  0.27496781  0.13670894     0.17700
C1557       C  0.53618531  0.31247909  0.20954120    -0.29700
N1558       N  0.02220216  0.23634370  0.24990477     0.14500
C1559       C  0.54150236  0.26583818  0.17161703    -0.29700
C1560       C  0.59416430  0.25807690  0.28810821    -0.30000
N1561       N  0.59595592  0.22348946  0.28360654     0.15000
H1562       H  0.59191166  0.27354846  0.31352039     0.17600
C1563       C  0.60018339  0.21296130  0.24844270    -0.30000
H1564       H  0.60393035  0.18671063  0.23698253     0.17600
H1565       H  0.03027040  0.19562784  0.20749971     0.17600
H1566       H  0.63612011  0.35893955  0.21385033     0.17700
H1567       H  0.03638881  0.28169143  0.28373641     0.17600
C1568       C  0.60804185  0.42695680  0.34843081     0.88000
C1569       C  0.63437788  0.44871653  0.32907162    -0.52300
C1570       C  0.65168582  0.43074853  0.30045117     0.10900
C1571       C  0.64115073  0.39325487  0.29461952     0.21900
C1572       C  0.58416467  0.41055050  0.31879767    -0.53000
C1573       C  0.60174906  0.39286122  0.29089661     0.11000
C1574       C  0.63064158  0.39694524  0.35804162    -0.52500
C1575       C  0.64767944  0.37920099  0.32976497     0.11600
H1576       H  0.63969191  0.47529258  0.33794997     0.16100
H1577       H  0.65501182  0.37849278  0.27211734     0.01800
H1578       H  0.55605193  0.41028672  0.32121850     0.16400
H1579       H  0.63258456  0.39009041  0.38474126     0.16200
C1580       C  0.72025618  0.12046439  0.20871694     0.31500
C1581       C  0.77770805  0.12084638  0.25151202     0.31500
C1582       C  0.71319092  0.11774737  0.24738697    -0.04700
C1583       C  0.74641618  0.09082992  0.19922141    -0.05500
C1584       C  0.74267598  0.15243913  0.21051572    -0.05400
C1585       C  0.74245675  0.11742730  0.26957295    -0.04700
C1586       C  0.77758682  0.09302504  0.21967421    -0.05500
C1587       C  0.77267351  0.15257088  0.23228831    -0.05400
C1588       C  0.73425272  0.09641645  0.29468286    -0.30700
N1589       N  0.70212164  0.08422241  0.28837984     0.15800
C1590       C  0.68962990  0.09650362  0.25941027    -0.30800
H1591       H  0.66615626  0.08833487  0.24567398     0.17700
C1592       C  0.78957532  0.06102963  0.22095805    -0.29700
N1593       N  0.76985593  0.53845406  0.20444228     0.14500
C1594       C  0.73870340  0.05641178  0.19525382    -0.29700
C1595       C  0.79872212  0.16552085  0.21299473    -0.30000
N1596       N  0.78614935  0.17288004  0.18181956     0.15000
H1597       H  0.82601589  0.16126003  0.21736048     0.17600
C1598       C  0.75204398  0.16676178  0.18085080    -0.30000
H1599       H  0.73738254  0.16416001  0.15656563     0.17600
H1600       H  0.71748725  0.54377122  0.18690233     0.17600
H1601       H  0.75124921  0.08879064  0.31486824     0.17700
H1602       H  0.81649417  0.55393640  0.23075659     0.17600
C1603       C  0.89742849  0.12597254  0.06766159     0.88000
C1604       C  0.87906195  0.15042675  0.04406939    -0.52300
C1605       C  0.86238238  0.17804640  0.06295564     0.10900
C1606       C  0.86681184  0.17833429  0.10300109     0.21900
C1607       C  0.92163485  0.14862495  0.09239399    -0.53000
C1608       C  0.90548717  0.17581312  0.11104080     0.11000
C1609       C  0.86838201  0.11639181  0.09276935    -0.52500
C1610       C  0.85226215  0.14434514  0.11104828     0.11600
H1611       H  0.87747316  0.14499938  0.01548938     0.16100
H1612       H  0.85468076  0.20004229  0.11943943     0.01800
H1613       H  0.94849142  0.14196007  0.09715484     0.16400
H1614       H  0.86202221  0.09036106  0.09658714     0.16200
C1615       C  0.60240148  0.11782569  0.38849480     0.88000
C1616       C  0.58071441  0.13935521  0.36486884    -0.52300
C1617       C  0.59909018  0.14839709  0.33633989     0.10900
C1618       C  0.63652144  0.13480341  0.33362891     0.21900
C1619       C  0.61548929  0.08758993  0.36334436    -0.53000
C1620       C  0.63304638  0.09598186  0.33541976     0.11000
C1621       C  0.63541634  0.13999526  0.39772837    -0.52500
C1622       C  0.65296614  0.14992732  0.36864513     0.11600
H1623       H  0.55400483  0.14738427  0.37054221     0.16100
H1624       H  0.65068104  0.14105264  0.30977312     0.01800
H1625       H  0.61139154  0.06100528  0.36695101     0.16400
H1626       H  0.64314079  0.14818948  0.42474504     0.16200
C1627       C  0.90163512  0.28576975  0.25251932     0.31500
C1628       C  0.90785818  0.24654885  0.18978493     0.31500
C1629       C  0.89609233  0.30527814  0.22029227    -0.04700
C1630       C  0.93735225  0.26985476  0.24480020    -0.05500
C1631       C  0.87845970  0.25390361  0.24810625    -0.05400
C1632       C  0.89811015  0.28411168  0.18763653    -0.04700
C1633       C  0.94072713  0.25003825  0.21192593    -0.05500
C1634       C  0.88217262  0.23281132  0.21560290    -0.05400
C1635       C  0.91489027  0.30261697  0.16410057    -0.30700
N1636       N  0.92551723  0.33257934  0.18058517     0.15800
C1637       C  0.91367440  0.33510278  0.21444419    -0.30800
H1638       H  0.92243254  0.35432391  0.23499489     0.17700
C1639       C  0.46549707  0.25777967  0.17583506    -0.29700
N1640       N  0.48569980  0.27947858  0.19643379     0.14500
C1641       C  0.47551083  0.28013111  0.23050866    -0.29700
C1642       C  0.88327342  0.19944696  0.22453634    -0.30000
N1643       N  0.88100105  0.19957994  0.26002566     0.15000
H1644       H  0.89110563  0.17711997  0.20681916     0.17600
C1645       C  0.87652912  0.23215923  0.27421783    -0.30000
H1646       H  0.87790196  0.24014599  0.30236044     0.17600
H1647       H  0.48690211  0.29544385  0.25278144     0.17600
H1648       H  0.92478373  0.29200644  0.13832222     0.17700
H1649       H  0.46682799  0.25360658  0.14722750     0.17600
C1650       C  0.92286786  0.43225083  0.09069824     0.88000
C1651       C  0.90594366  0.39884861  0.07532995    -0.52300
C1652       C  0.89094773  0.38185540  0.10014459     0.10900
C1653       C  0.89489204  0.39821560  0.13805111     0.21900
C1654       C  0.89231384  0.45167268  0.11361509    -0.53000
C1655       C  0.87778232  0.43296269  0.13911270     0.11000
C1656       C  0.94857218  0.42188199  0.11879579    -0.52500
C1657       C  0.93321363  0.40436771  0.14350335     0.11600
H1658       H  0.90301694  0.39113974  0.04713401     0.16100
H1659       H  0.88434163  0.38150230  0.15666685     0.01800
H1660       H  0.88239818  0.47653907  0.10894195     0.16400
H1661       H  0.97623936  0.42682598  0.11837403     0.16200
C1662       C  0.90147918  0.09532342  0.36534483     0.88000
C1663       C  0.87760201  0.11198821  0.39474096    -0.52300
C1664       C  0.85369828  0.13342443  0.38377722     0.10900
C1665       C  0.85567535  0.13809326  0.34431598     0.21900
C1666       C  0.87493799  0.07924323  0.33603143    -0.53000
C1667       C  0.85110793  0.10275517  0.32448731     0.11000
C1668       C  0.91737627  0.12533563  0.34789627    -0.52500
C1669       C  0.89306262  0.14701999  0.33620535     0.11600
H1670       H  0.87820034  0.10582450  0.42180731     0.16100
H1671       H  0.83654658  0.15725490  0.33723167     0.01800
H1672       H  0.87545998  0.05247657  0.32543371     0.16400
H1673       H  0.94502189  0.12778704  0.34316448     0.16200
C1674       C  0.72884956  0.42835184  0.23095663     0.31500
C1675       C  0.79498434  0.42284046  0.20331839     0.31500
C1676       C  0.73157500  0.42123096  0.19087930    -0.04700
C1677       C  0.75105938  0.46033408  0.23844411    -0.05500
C1678       C  0.75090217  0.39949188  0.24225682    -0.05400
C1679       C  0.76568838  0.41817568  0.17650120    -0.04700
C1680       C  0.78617456  0.45638222  0.22611312    -0.05500
C1681       C  0.78537828  0.39663763  0.22837915    -0.05400
C1682       C  0.76457541  0.42966855  0.14405267    -0.33600
N1683       N  0.73245576  0.44101311  0.13907742     0.15800
C1684       C  0.71221946  0.43623638  0.16723613    -0.30800
H1685       H  0.68578381  0.44540708  0.17177725     0.17700
C1686       C  0.79165232  0.98732060  0.22024540    -0.29700
N1687       N  0.76351514  0.00718951  0.21993194     0.14500
C1688       C  0.73576853  0.99175178  0.23252063    -0.29700
C1689       C  0.80513250  0.38729084  0.25535674    -0.30000
N1690       N  0.78438391  0.38450562  0.28371297     0.15000
H1691       H  0.83317815  0.38882801  0.25646486     0.17600
C1692       C  0.75143915  0.39045001  0.27572461    -0.30000
H1693       H  0.73087680  0.39525811  0.29535158     0.17600
H1694       H  0.70929434  0.00118945  0.23222205     0.17600
H1695       H  0.78594601  0.43230958  0.12612438     0.17700
H1696       H  0.81661530  0.99347447  0.20970799     0.17600
C1697       C  0.62216625  0.41281529  0.04821196     0.88000
C1698       C  0.64162574  0.44254314  0.06754470    -0.52300
C1699       C  0.66702584  0.43388103  0.08776554     0.10900
C1700       C  0.67023347  0.39538138  0.09075230     0.21900
C1701       C  0.65085642  0.38771318  0.03013458    -0.53000
C1702       C  0.67525072  0.37751366  0.05335545     0.11000
C1703       C  0.60802111  0.39373883  0.07880887    -0.52500
C1704       C  0.63380141  0.38415012  0.10103647     0.11600
H1705       H  0.63611009  0.46938883  0.06620145     0.16100
H1706       H  0.69158154  0.38981810  0.10839233     0.01800
H1707       H  0.64528969  0.38618952  0.51392304     0.16400
H1708       H  0.58089264  0.38735844  0.08173343     0.16200
C1709       C  0.89328471  0.38887298  0.39232125     0.88000
C1710       C  0.87008119  0.36022340  0.40627847    -0.52300
C1711       C  0.85021721  0.34160125  0.38023245     0.10900
C1712       C  0.85711273  0.35353876  0.34400802     0.21900
C1713       C  0.91540900  0.36960425  0.36205786    -0.53000
C1714       C  0.89647510  0.35103198  0.33694562     0.11000
C1715       C  0.86763674  0.41023641  0.37378369    -0.52500
C1716       C  0.84871350  0.39163612  0.34940293     0.11600
H1717       H  0.86871732  0.35616544  0.43392340     0.16100
H1718       H  0.84242073  0.34070199  0.32175957     0.01800
H1719       H  0.94347238  0.37106190  0.35998059     0.16400
H1720       H  0.86428971  0.43773065  0.37918170     0.16200
C1721       C  0.79414617  0.25435753  0.06408842     0.31500
C1722       C  0.73793445  0.29791068  0.06342623     0.31500
C1723       C  0.79118363  0.28306693  0.09516287    -0.04700
C1724       C  0.79163022  0.27364102  0.03152406    -0.05500
C1725       C  0.75897694  0.23811924  0.06521310    -0.05400
C1726       C  0.76253026  0.30607227  0.09442735    -0.04700
C1727       C  0.76264603  0.29663862  0.03194935    -0.05500
C1728       C  0.73009534  0.25983103  0.06463673    -0.05400
C1729       C  0.77544845  0.33807438  0.10475537    -0.30700
N1730       N  0.80957191  0.33517835  0.11092183     0.15800
C1731       C  0.81877706  0.30219207  0.10765287    -0.30800
H1732       H  0.84553682  0.29355573  0.10708543     0.17700
C1733       C  0.70431036  0.26285159  0.49852898    -0.29700
N1734       N  0.72665192  0.25175353  0.47279709     0.14500
C1735       C  0.75552877  0.23873152  0.48600397    -0.29700
C1736       C  0.70154897  0.24041607  0.06978134    -0.30000
N1737       N  0.71293674  0.20831796  0.07354715     0.15000
H1738       H  0.67494513  0.24940642  0.07327822     0.17600
C1739       C  0.74783979  0.20676461  0.07117457    -0.30000
H1740       H  0.76381862  0.18491951  0.07542658     0.17600
H1741       H  0.77946415  0.23318381  0.47118108     0.17600
H1742       H  0.76292765  0.36175380  0.09994915     0.17700
H1743       H  0.68145246  0.27788946  0.49443756     0.17600
C1744       C  0.77037426  0.27466924  0.35912219     0.31500
C1745       C  0.72021736  0.22508333  0.35126003     0.31500
C1746       C  0.78373842  0.23833061  0.35780189    -0.04700
C1747       C  0.74258953  0.27681254  0.38863291    -0.05500
C1748       C  0.74779013  0.27382703  0.32577296    -0.05400
C1749       C  0.75814261  0.21256945  0.35467048    -0.04700
C1750       C  0.71554907  0.25219158  0.38326027    -0.05500
C1751       C  0.72170640  0.24832174  0.32152524    -0.05400
C1752       C  0.77003804  0.18830327  0.37520537    -0.30700
N1753       N  0.80077392  0.19824728  0.38980208     0.15800
C1754       C  0.80927423  0.22822167  0.37919815    -0.30800
H1755       H  0.83093054  0.24344158  0.38950613     0.17700
C1756       C  0.70322049  0.24647680  0.41542925    -0.29700
N1757       N  0.72403179  0.26227228  0.43959751     0.14500
C1758       C  0.74789886  0.28074233  0.42451154    -0.29700
C1759       C  0.69277267  0.26436169  0.30899386    -0.30000
N1760       N  0.69992087  0.29730355  0.30619680     0.15000
H1761       H  0.66659255  0.25471869  0.30929929     0.17600
C1762       C  0.73309123  0.30296435  0.31532095    -0.30000
H1763       H  0.74344971  0.32832999  0.32103083     0.17600
H1764       H  0.77052905  0.29153066  0.43801240     0.17600
H1765       H  0.75574508  0.16648287  0.38169016     0.17700
H1766       H  0.68482565  0.22745329  0.42116202     0.17600
C1767       C  0.59721011  0.42862755  0.02313693     0.44000
N1768       N  0.54885133  0.44964432  0.00565673     0.02800
C1769       C  0.54690383  0.10883469  0.43005543    -0.05000
H1770       H  0.52292675  0.12081764  0.05656740     0.08300
C1771       C  0.90723021  0.06162125  0.03360494    -0.05400
Co1772     Co  0.56674409  0.01930506  0.47488619     0.74200
N1773       N  0.53441452  0.07691100  0.01824400    -0.24600
Co1774     Co  0.49835316  0.07837067  0.48339676     0.74100
C1775       C  0.91801152  0.09606422  0.04831449     0.44100
N1776       N  0.94674816  0.47099799  0.01116899     0.02500
N1777       N  0.95947535  0.07086727  0.01619932     0.02600
N1778       N  0.59213459  0.07263391  0.42915453    -0.45400
H1779       H  0.62641777  0.47551507  0.00794632     0.08300
N1780       N  0.56043285  0.05431356  0.01670388     0.02800
N1781       N  0.96487883  0.06552954  0.42652811     0.02600
C1782       C  0.92868426  0.07249887  0.38251723     0.44200
N1783       N  0.97185786  0.44733796  0.00819117    -0.24000
C1784       C  0.59646722  0.47637638  0.40343181    -0.04900
N1785       N  0.56286033  0.42271419  0.01871314    -0.45100
N1786       N  0.95695753  0.08541239  0.40147293    -0.45300
C1787       C  0.58753151  0.44495235  0.38090704     0.44000
N1788       N  0.56483726  0.06037001  0.44468400     0.02800
N1789       N  0.96382502  0.44107561  0.43322889    -0.24000
N1790       N  0.57119825  0.47420622  0.00314727    -0.24500
N1791       N  0.93729353  0.46254986  0.43612194     0.02500
H1792       H  0.96783511  0.38661507  0.42122175     0.08400
H1793       H  0.89595970  0.02749308  0.39661781     0.08400
N1794       N  0.53813596  0.08158275  0.44642332    -0.24600
N1795       N  0.93461263  0.04793397  0.01401971    -0.24200
N1796       N  0.55259976  0.45261527  0.42712233     0.02800
C1797       C  0.57008838  0.08635941  0.06684804     0.44200
C1798       C  0.97015449  0.43151411  0.03776979    -0.05400
N1799       N  0.94236658  0.04018121  0.42655894    -0.24200
H1800       H  0.88163620  0.05064738  0.03388543     0.08400
N1801       N  0.58194021  0.05947834  0.04404129    -0.45400
H1802       H  0.98707932  0.41086025  0.04341728     0.08400
C1803       C  0.91504744  0.41255812  0.41798965     0.44100
C1804       C  0.60223603  0.46269023  0.01182775    -0.04900
Co1805     Co  0.00513052  0.44741952  0.46649874     0.73800
N1806       N  0.92781713  0.47154587  0.04085994    -0.45100
C1807       C  0.58337643  0.10341827  0.41891143     0.44300
N1808       N  0.56032541  0.43149916  0.39783947    -0.45100
Co1809     Co  0.94232906  0.00865513  0.46857508     0.73900
C1810       C  0.91924535  0.04252538  0.40032977    -0.05500
C1811       C  0.53873937  0.09834712  0.04860843    -0.05000
N1812       N  0.57394024  0.47895943  0.43102661    -0.24500
N1813       N  0.95042046  0.09961592  0.03582807    -0.45300
H1814       H  0.53111524  0.13160748  0.42974058     0.08300
C1815       C  0.95262400  0.40980085  0.42114624    -0.05400
Cl1816     Cl  0.50280527  0.01545598  0.47728009    -0.48400
C1817       C  0.94131650  0.44790479  0.06010529     0.44100
H1818       H  0.61730322  0.49389153  0.40013038     0.08300
N1819       N  0.90793582  0.44647872  0.42696080    -0.45100
C1820       C  0.82282974  0.31432707  0.38560198    -0.14900
C1821       C  0.79904234  0.30275175  0.36001808    -0.30100
H1822       H  0.82231678  0.30415551  0.41078087     0.14100
H1823       H  0.80002460  0.31380991  0.33563782     0.14700
C1824       C  0.70332494  0.35054749  0.04543460    -0.14900
C1825       C  0.70623908  0.32274711  0.06378231    -0.30100
H1826       H  0.72374642  0.35619736  0.02737973     0.14100
H1827       H  0.68537631  0.31836293  0.08180229     0.14700
C1828       C  0.79575952  0.38748903  0.31907744    -0.14900
C1829       C  0.82322710  0.40639395  0.32822274    -0.30100
H1830       H  0.78583164  0.36987396  0.33634612     0.14100
H1831       H  0.83164309  0.42623215  0.31272369     0.14700
C1832       C  0.72161981  0.45312963  0.10738643    -0.14900
C1833       C  0.68850979  0.46076588  0.10503094    -0.30100
H1834       H  0.73500322  0.44188882  0.08340069     0.14100
H1835       H  0.67574875  0.47685810  0.12662637     0.14700
C1836       C  0.82260428  0.18059928  0.41192728    -0.14900
C1837       C  0.82443244  0.14686399  0.40598743    -0.30100
H1838       H  0.84638089  0.19354082  0.42072292     0.14100
H1839       H  0.80067145  0.13310436  0.39945046     0.14700
C1840       C  0.86445486  0.35629076  0.09222840    -0.14900
C1841       C  0.83348757  0.36180509  0.10861984    -0.30100
H1842       H  0.87117875  0.33251349  0.07610790     0.14100
H1843       H  0.82614228  0.38690304  0.12078605     0.14700
C1844       C  0.84491781  0.44101713  0.16154847    -0.14900
C1845       C  0.83213912  0.42082537  0.18627086    -0.30100
H1846       H  0.82919342  0.46194889  0.15436161     0.14100
H1847       H  0.84822560  0.40076030  0.19452945     0.14700
C1848       C  0.89428330  0.30556794  0.28824687    -0.14900
C1849       C  0.91165809  0.33218704  0.30411874    -0.30100
H1850       H  0.87200596  0.29703473  0.30220498     0.14100
H1851       H  0.93588457  0.34021176  0.29311078     0.14700
C1852       C  0.89983175  0.17386683  0.31280727    -0.14900
C1853       C  0.88705484  0.17073250  0.27943728    -0.30100
H1854       H  0.91002354  0.19796897  0.32484877     0.14100
H1855       H  0.87959757  0.14564917  0.26716656     0.14700
C1856       C  0.94994944  0.38731769  0.17132535    -0.14900
C1857       C  0.95051324  0.35325801  0.16452280    -0.30100
H1858       H  0.94193342  0.39803834  0.19779455     0.14100
H1859       H  0.95948168  0.34311030  0.13806489     0.14700
C1860       C  0.68338400  0.17468194  0.37123293    -0.14900
C1861       C  0.69185888  0.19644889  0.34678930    -0.30100
H1862       H  0.69798261  0.17610781  0.39551293     0.14100
H1863       H  0.67679677  0.19478147  0.32273429     0.14700
C1864       C  0.82623630  0.23125333  0.06776882    -0.14900
C1865       C  0.83583877  0.20133367  0.04844040    -0.30100
H1866       H  0.84240023  0.23947481  0.09001653     0.14100
H1867       H  0.82194328  0.19227926  0.02451910     0.14700
C1868       C  0.91984338  0.19508789  0.14354529    -0.14900
C1869       C  0.90861369  0.22715246  0.15283474    -0.30100
H1870       H  0.93490851  0.18171364  0.16161560     0.14100
H1871       H  0.89536073  0.23955118  0.13264990     0.14700
C1872       C  0.80948608  0.12204012  0.27746644    -0.14900
C1873       C  0.82240473  0.09678049  0.29655013    -0.30100
H1874       H  0.82173355  0.14665303  0.28126691     0.14100
H1875       H  0.81080923  0.07176845  0.29337568     0.14700
C1876       C  0.64816328  0.06906427  0.31042029    -0.14900
C1877       C  0.68250898  0.06630202  0.31187125    -0.30100
H1878       H  0.63548387  0.06634718  0.28497979     0.14100
H1879       H  0.69381511  0.06514553  0.33781422     0.14700
C1880       C  0.82657422  0.14343388  0.13976778    -0.14900
C1881       C  0.80618389  0.17088486  0.15010684    -0.30100
H1882       H  0.82634592  0.12153155  0.15451161     0.14100
H1883       H  0.80256314  0.19106659  0.13348141     0.14700
C1884       C  0.67044473  0.34905399  0.33234029    -0.14900
C1885       C  0.67459870  0.32398650  0.30511797    -0.30100
H1886       H  0.68437233  0.34748689  0.35679801     0.14100
H1887       H  0.65916628  0.32365552  0.28162373     0.14700
C1888       C  0.68237424  0.44324369  0.28041220    -0.14900
C1889       C  0.69159826  0.42921845  0.24687865    -0.30100
H1890       H  0.69992869  0.46090272  0.29509414     0.14100
H1891       H  0.67338823  0.41221296  0.23231962     0.14700
C1892       C  0.59962157  0.20285340  0.31211686    -0.14900
C1893       C  0.58640506  0.17135479  0.31108496    -0.30100
H1894       H  0.61461889  0.21299106  0.33499778     0.14100
H1895       H  0.57018372  0.16107706  0.28927010     0.14700
C1896       C  0.62836184  0.36178742  0.12968628    -0.14900
C1897       C  0.65512408  0.34547379  0.14381375    -0.30100
H1898       H  0.60201210  0.35727723  0.13822121     0.14100
H1899       H  0.68164178  0.34812724  0.13548154     0.14700
C1900       C  0.59088679  0.33399065  0.27034579    -0.14900
C1901       C  0.58638857  0.36672045  0.26480556    -0.30100
H1902       H  0.59636371  0.32894854  0.29718980     0.14100
H1903       H  0.58123208  0.37319158  0.23843769     0.14700
C1904       C  0.66138783  0.17497185  0.07226867    -0.14900
C1905       C  0.69284444  0.18177427  0.08502953    -0.30100
H1906       H  0.65134697  0.18771799  0.05066951     0.14100
H1907       H  0.70404872  0.16645043  0.10402159     0.14700
C1908       C  0.67437176  0.10273710  0.15753993    -0.14900
C1909       C  0.68665610  0.12385145  0.18612449    -0.30100
H1910       H  0.68730973  0.07851753  0.14955543     0.14100
H1911       H  0.67159038  0.14688159  0.19440061     0.14700
C1912       C  0.61010045  0.21765481  0.16521750    -0.14900
C1913       C  0.58913691  0.19007543  0.16109802    -0.30100
H1914       H  0.63341439  0.21763643  0.14910081     0.14100
H1915       H  0.56472602  0.19046874  0.17564494     0.14700
C1916       C  0.60562701  0.10592962  0.59548738     0.88000
C1917       C  0.63420296  0.08663165  0.61611735    -0.52300
C1918       C  0.65457586  0.10801506  0.63975534     0.10900
C1919       C  0.64394261  0.14540007  0.63937561     0.21900
C1920       C  0.58511975  0.12743158  0.62515525    -0.53000
C1921       C  0.60514534  0.14820082  0.64736531     0.11000
C1922       C  0.62713907  0.13205170  0.57782767    -0.52500
C1923       C  0.64761152  0.15193213  0.60082100     0.11600
H1924       H  0.63828121  0.05921319  0.61165626     0.16100
H1925       H  0.65848187  0.16400498  0.65746280     0.01800
H1926       H  0.55694926  0.12807668  0.62695528     0.16400
H1927       H  0.62658651  0.13424561  0.54967236     0.16200
C1928       C  0.59220538  0.23914311  0.69438708     0.31500
C1929       C  0.58517529  0.29546679  0.74185112     0.31500
C1930       C  0.59827184  0.27293033  0.67925276    -0.04700
C1931       C  0.55596910  0.24469844  0.71106381    -0.05500
C1932       C  0.61594248  0.23970917  0.72664038    -0.05400
C1933       C  0.59417911  0.30238761  0.70394731    -0.04700
C1934       C  0.55280019  0.27401990  0.73593375    -0.05500
C1935       C  0.61179668  0.26893202  0.75174563    -0.05400
C1936       C  0.57721551  0.32616103  0.68595337    -0.30700
N1937       N  0.57172876  0.31326486  0.65214520     0.15800
C1938       C  0.58439754  0.28100503  0.64768288    -0.30800
H1939       H  0.57946342  0.26282450  0.62471432     0.17700
C1940       C  0.52863684  0.26730606  0.76016578    -0.29700
N1941       N  0.01771900  0.25459481  0.72346289     0.14500
C1942       C  0.53247114  0.22172136  0.72108316    -0.29700
C1943       C  0.61400873  0.25720683  0.78469988    -0.30000
N1944       N  0.61947254  0.22320494  0.78064782     0.15000
H1945       H  0.60734912  0.27174646  0.80983909     0.17600
C1946       C  0.62141050  0.21241011  0.74583818    -0.30000
H1947       H  0.62335411  0.18578628  0.73527210     0.17600
H1948       H  0.02628490  0.21026254  0.68500366     0.17600
H1949       H  0.56536084  0.34978699  0.69794061     0.17700
H1950       H  0.03256254  0.29974077  0.75721786     0.17600
C1951       C  0.59960150  0.42489005  0.84918557     0.88000
C1952       C  0.62324083  0.44692787  0.82639669    -0.52300
C1953       C  0.64538606  0.42795497  0.80214470     0.10900
C1954       C  0.64067859  0.38976990  0.80275913     0.21900
C1955       C  0.58037685  0.40069216  0.82067572    -0.53000
C1956       C  0.60238029  0.38277202  0.79637506     0.11000
C1957       C  0.62553528  0.40130260  0.86527679    -0.52500
C1958       C  0.64622598  0.38264899  0.84077154     0.11600
H1959       H  0.62209044  0.47458092  0.82903507     0.16100
H1960       H  0.65766046  0.37394725  0.78339529     0.01800
H1961       H  0.55235932  0.39808118  0.81979893     0.16400
H1962       H  0.62570538  0.39783501  0.89315163     0.16200
C1963       C  0.73496478  0.11842205  0.71042801     0.31500
C1964       C  0.79276354  0.12313744  0.75315258     0.31500
C1965       C  0.72832136  0.11981089  0.75001441    -0.04700
C1966       C  0.76073809  0.08831516  0.70400072    -0.05500
C1967       C  0.75811937  0.14962668  0.70837713    -0.05400
C1968       C  0.75776329  0.12193304  0.77196275    -0.04700
C1969       C  0.79221033  0.09242971  0.72411918    -0.05500
C1970       C  0.78733337  0.15274509  0.73123959    -0.05400
C1971       C  0.74967009  0.10566217  0.80074656    -0.30700
N1972       N  0.71737931  0.09340717  0.79683791     0.15800
C1973       C  0.70447764  0.10135374  0.76592753    -0.30800
H1974       H  0.68039629  0.09229071  0.75405283     0.17700
C1975       C  0.80334232  0.06096251  0.72977238    -0.29700
N1976       N  0.74710215  0.51589722  0.67247936     0.14500
C1977       C  0.75222407  0.05449048  0.70466189    -0.29700
C1978       C  0.81314341  0.16739902  0.71331808    -0.30000
N1979       N  0.80170058  0.17221481  0.68107384     0.15000
H1980       H  0.84027751  0.16737154  0.72017848     0.17600
C1981       C  0.76889680  0.16119143  0.67753773    -0.30000
H1982       H  0.75694882  0.15489172  0.65221631     0.17600
H1983       H  0.70353051  0.54128609  0.65742566     0.17600
H1984       H  0.76660782  0.10140221  0.82232076     0.17700
H1985       H  0.78837130  0.50772779  0.70814382     0.17600
C1986       C  0.89707686  0.13487715  0.54993583     0.88000
C1987       C  0.87047302  0.15205852  0.52658068    -0.52300
C1988       C  0.85201746  0.17894643  0.54481532     0.10900
C1989       C  0.86153368  0.18522403  0.58387001     0.21900
C1990       C  0.91944552  0.16455678  0.56776387    -0.53000
C1991       C  0.90052172  0.19061608  0.58581427     0.11000
C1992       C  0.87455222  0.12461947  0.58058008    -0.52500
C1993       C  0.85598163  0.15120556  0.59828638     0.11600
H1994       H  0.86608118  0.14317955  0.49888334     0.16100
H1995       H  0.84678269  0.20675985  0.59821187     0.01800
H1996       H  0.94755488  0.16323140  0.56935785     0.16400
H1997       H  0.87377986  0.09890007  0.58792202     0.16200
C1998       C  0.60771608  0.12326059  0.89376098     0.88000
C1999       C  0.58853369  0.14392126  0.86733126    -0.52300
C2000       C  0.61017959  0.15459723  0.84188391     0.10900
C2001       C  0.64798674  0.14243702  0.84429548     0.21900
C2002       C  0.62521019  0.09406210  0.87038576    -0.53000
C2003       C  0.64584477  0.10372581  0.84544028     0.11000
C2004       C  0.63830719  0.14771906  0.90756228    -0.52500
C2005       C  0.65940418  0.15860075  0.88110051     0.11600
H2006       H  0.56119204  0.15086353  0.86959095     0.16100
H2007       H  0.66442259  0.14843301  0.82194589     0.01800
H2008       H  0.62157143  0.06713954  0.87270085     0.16400
H2009       H  0.64137237  0.15708310  0.93533741     0.16200
C2010       C  0.89514691  0.28308829  0.73874839     0.31500
C2011       C  0.90208156  0.23770470  0.67984937     0.31500
C2012       C  0.86991992  0.28849984  0.70861487    -0.04700
C2013       C  0.93060322  0.28312413  0.72019539    -0.05500
C2014       C  0.89089557  0.24568249  0.74463304    -0.05400
C2015       C  0.87342356  0.26450835  0.67782469    -0.04700
C2016       C  0.93370693  0.25980761  0.68890307    -0.05500
C2017       C  0.89440936  0.22239839  0.71427664    -0.05400
C2018       C  0.86886075  0.28263409  0.64928775    -0.30700
N2019       N  0.86395798  0.31589172  0.66091123     0.15800
C2020       C  0.86359657  0.31971055  0.69658050    -0.30800
H2021       H  0.86524830  0.34424204  0.71259929     0.17700
C2022       C  0.46154997  0.20643803  0.74009596    -0.29700
N2023       N  0.48318195  0.22547040  0.76214118     0.14500
C2024       C  0.46359448  0.24648846  0.78512617    -0.29700
C2025       C  0.90532323  0.19190460  0.72518855    -0.30000
N2026       N  0.90795000  0.19553038  0.76081680     0.15000
H2027       H  0.91263707  0.16893102  0.70814650     0.17600
C2028       C  0.90018379  0.22850267  0.77294959    -0.30000
H2029       H  0.90230411  0.23970675  0.80021473     0.17600
H2030       H  0.47328326  0.26787706  0.80245618     0.17600
H2031       H  0.87396299  0.27312699  0.62188988     0.17700
H2032       H  0.46962995  0.19175604  0.71552888     0.17600
C2033       C  0.89717878  0.42405991  0.56498027     0.88000
C2034       C  0.87826454  0.40938637  0.53183761    -0.52300
C2035       C  0.85282863  0.38775514  0.53773207     0.10900
C2036       C  0.84779167  0.38171794  0.57679540     0.21900
C2037       C  0.86744281  0.43959635  0.59134452    -0.53000
C2038       C  0.84156059  0.41658921  0.59834404     0.11000
C2039       C  0.90981843  0.39256100  0.58209534    -0.52500
C2040       C  0.88360457  0.37091640  0.58873737     0.11600
H2041       H  0.88540457  0.41457048  0.50530154     0.16100
H2042       H  0.82771346  0.36259170  0.58043564     0.01800
H2043       H  0.86826493  0.46540513  0.60481928     0.16400
H2044       H  0.93636938  0.38903413  0.59041569     0.16200
C2045       C  0.91000498  0.09626012  0.87104673     0.88000
C2046       C  0.88794139  0.11838072  0.89842636    -0.52300
C2047       C  0.86900941  0.14232784  0.88472630     0.10900
C2048       C  0.87306535  0.14267713  0.84455878     0.21900
C2049       C  0.88289120  0.08186998  0.84220607    -0.53000
C2050       C  0.86372053  0.10703088  0.82783872     0.11000
C2051       C  0.93166958  0.12173700  0.85193949    -0.52500
C2052       C  0.91180195  0.14568635  0.83788591     0.11600
H2053       H  0.88732440  0.11542853  0.92645749     0.16100
H2054       H  0.85759778  0.16310887  0.83433479     0.01800
H2055       H  0.87933536  0.05482636  0.83421144     0.16400
H2056       H  0.95971919  0.12020179  0.84888230     0.16200
C2057       C  0.72239668  0.42033894  0.72962694     0.31500
C2058       C  0.76449521  0.40534958  0.67051666     0.31500
C2059       C  0.72228013  0.38309686  0.71235958    -0.04700
C2060       C  0.71436483  0.44065150  0.69839350    -0.05500
C2061       C  0.76067738  0.42727984  0.73441040    -0.05400
C2062       C  0.74327605  0.37518246  0.68119238    -0.04700
C2063       C  0.73497279  0.43088398  0.66690756    -0.05500
C2064       C  0.78215142  0.41956214  0.70480875    -0.05400
C2065       C  0.72224821  0.35518217  0.65805108    -0.33600
N2066       N  0.69087016  0.35139898  0.67329146     0.15800
C2067       C  0.69164395  0.36605205  0.70677624    -0.30800
H2068       H  0.66814691  0.37275016  0.72199270     0.17700
C2069       C  0.80154789  0.98483324  0.72579277    -0.29700
N2070       N  0.77660690  0.00801079  0.73419757     0.14500
C2071       C  0.74806274  0.99328451  0.74600705    -0.29700
C2072       C  0.81530631  0.41708663  0.71697895    -0.30000
N2073       N  0.81428726  0.42421313  0.75258500     0.15000
H2074       H  0.83764930  0.40664560  0.70174814     0.17600
C2075       C  0.78100928  0.43065786  0.76338018    -0.30000
H2076       H  0.77150309  0.43205984  0.79035227     0.17600
H2077       H  0.72281496  0.00568668  0.74901491     0.17600
H2078       H  0.72619852  0.35199799  0.62961823     0.17700
H2079       H  0.82477240  0.99000095  0.71133608     0.17600
C2080       C  0.60226287  0.40069180  0.55703602     0.88000
C2081       C  0.61640963  0.40921565  0.59499826    -0.52300
C2082       C  0.62629118  0.38064669  0.61024689     0.10900
C2083       C  0.62071473  0.34718711  0.58641930     0.21900
C2084       C  0.63211122  0.37896015  0.53716298    -0.53000
C2085       C  0.64222990  0.35114313  0.55361572     0.11000
C2086       C  0.57284500  0.37479660  0.56155540    -0.52500
C2087       C  0.58305542  0.34709528  0.57635248     0.11600
H2088       H  0.62073058  0.43506659  0.60730177     0.16100
H2089       H  0.62592686  0.32355321  0.59789288     0.01800
H2090       H  0.65061452  0.37773070  0.00229829     0.16400
H2091       H  0.54558377  0.37904772  0.55635527     0.16200
C2092       C  0.89962519  0.39272100  0.87555057     0.88000
C2093       C  0.87376364  0.36695590  0.88913385    -0.52300
C2094       C  0.85221329  0.35121768  0.86332087     0.10900
C2095       C  0.85874675  0.36323949  0.82710796     0.21900
C2096       C  0.91908262  0.37128692  0.84426484    -0.53000
C2097       C  0.89722982  0.35532272  0.81918284     0.11000
C2098       C  0.87698521  0.41743903  0.85804825    -0.52500
C2099       C  0.85648547  0.40222044  0.83284187     0.11600
H2100       H  0.87345193  0.36094562  0.91621322     0.16100
H2101       H  0.84107728  0.35238913  0.80603103     0.01800
H2102       H  0.94714275  0.36867029  0.84233725     0.16400
H2103       H  0.87846413  0.44507794  0.86326751     0.16200
C2104       C  0.78008553  0.24978762  0.54963514     0.31500
C2105       C  0.72075135  0.28712972  0.56166421     0.31500
C2106       C  0.78373468  0.28828240  0.55000823    -0.04700
C2107       C  0.75181374  0.24138152  0.52211200    -0.05500
C2108       C  0.76113197  0.24575117  0.58476101    -0.05400
C2109       C  0.75323209  0.30743952  0.55672687    -0.04700
C2110       C  0.72002329  0.25967030  0.52969702    -0.05500
C2111       C  0.73025334  0.26581288  0.59117646    -0.05400
C2112       C  0.75678348  0.33685213  0.54134405    -0.30700
N2113       N  0.78767582  0.33604367  0.52469306     0.15800
C2114       C  0.80399869  0.30621605  0.52891108    -0.30800
H2115       H  0.82820097  0.29721431  0.51626115     0.17700
C2116       C  0.75252905  0.29709540  0.99808597    -0.29700
N2117       N  0.77314632  0.27589258  0.97748162     0.14500
C2118       C  0.79665480  0.26079290  0.99653781    -0.29700
C2119       C  0.70651461  0.24559032  0.60569524    -0.30000
N2120       N  0.72050186  0.21449362  0.60712362     0.15000
H2121       H  0.67884394  0.25082584  0.60784146     0.17600
C2122       C  0.75374373  0.21445115  0.59584032    -0.30000
H2123       H  0.76891871  0.19132656  0.58883568     0.17600
H2124       H  0.81301154  0.23935922  0.98622960     0.17600
H2125       H  0.73781589  0.35722072  0.54119521     0.17700
H2126       H  0.72854376  0.30745162  0.98905272     0.17600
C2127       C  0.77656976  0.28139230  0.85200514     0.31500
C2128       C  0.73230007  0.22868346  0.86000100     0.31500
C2129       C  0.79307889  0.24577751  0.84602955    -0.04700
C2130       C  0.75890762  0.28241327  0.88842107    -0.05500
C2131       C  0.74557688  0.27872531  0.82736964    -0.05400
C2132       C  0.77020985  0.21844605  0.85059358    -0.04700
C2133       C  0.73718500  0.25412155  0.89329151    -0.05500
C2134       C  0.72193077  0.25223678  0.83225953    -0.05400
C2135       C  0.78900091  0.19650461  0.86889914    -0.30700
N2136       N  0.82087378  0.20938548  0.87593749     0.15800
C2137       C  0.82420635  0.23791793  0.86056811    -0.30800
H2138       H  0.84627985  0.25454203  0.86456837     0.17700
C2139       C  0.74417311  0.24652673  0.92694504    -0.29700
N2140       N  0.76739944  0.26897522  0.94167060     0.14500
C2141       C  0.77477694  0.29173523  0.91975033    -0.29700
C2142       C  0.68926065  0.26675824  0.82998584    -0.30000
N2143       N  0.69233097  0.29923102  0.82318703     0.15000
H2144       H  0.66566169  0.25712529  0.84031879     0.17600
C2145       C  0.72608515  0.30655692  0.82085113    -0.30000
H2146       H  0.73560266  0.33229599  0.82111940     0.17600
H2147       H  0.79110262  0.31352298  0.92665054     0.17600
H2148       H  0.77775844  0.17603791  0.88152371     0.17700
H2149       H  0.73526413  0.22477160  0.93906247     0.17600
C2150       C  0.58736443  0.43036656  0.53868783     0.44000
N2151       N  0.55094355  0.45192374  0.50434934     0.02800
C2152       C  0.54750836  0.10892251  0.92685264    -0.05000
H2153       H  0.53284932  0.12266537  0.56371750     0.08300
C2154       C  0.91018948  0.06931392  0.52024207    -0.05400
Co2155     Co  0.56686583  0.01849243  0.97094910     0.74200
N2156       N  0.53942932  0.07887115  0.52399406    -0.24600
Co2157     Co  0.49643895  0.07449466  0.97493065     0.74100
C2158       C  0.91936181  0.10507120  0.53161077     0.44100
N2159       N  0.94290271  0.47724742  0.51156925     0.02500
N2160       N  0.96308483  0.07782283  0.50440990     0.02600
N2161       N  0.59411688  0.07564323  0.93105643    -0.45400
H2162       H  0.62414895  0.47634374  0.53578559     0.08300
N2163       N  0.56482465  0.05559494  0.51979200     0.02800
N2164       N  0.96209802  0.06441849  0.93836753     0.02600
C2165       C  0.93217485  0.07189508  0.89072267     0.44200
N2166       N  0.96711168  0.45287672  0.50972637    -0.24000
C2167       C  0.58419793  0.47615255  0.90012919    -0.04900
N2168       N  0.55740357  0.42570532  0.52147503    -0.45100
N2169       N  0.95894011  0.08365558  0.91207629    -0.45300
C2170       C  0.57540248  0.44419254  0.87850353     0.44000
N2171       N  0.56587108  0.06082577  0.94202474     0.02800
N2172       N  0.96848069  0.43811992  0.92959706    -0.24000
N2173       N  0.57462219  0.47572893  0.50835667    -0.24500
N2174       N  0.94148995  0.45918585  0.93404596     0.02500
H2175       H  0.97460942  0.38616339  0.90503338     0.08400
H2176       H  0.89547969  0.02827089  0.90091249     0.08400
N2177       N  0.53815082  0.08028758  0.94081494    -0.24600
N2178       N  0.93879564  0.05451307  0.50363732    -0.24200
N2179       N  0.54347340  0.45120753  0.92770678     0.02800
C2180       C  0.58008923  0.08630740  0.56865041     0.44200
C2181       C  0.95894596  0.43272687  0.53488256    -0.05400
N2182       N  0.93827068  0.04019920  0.93645342    -0.24200
H2183       H  0.88488474  0.05774262  0.52063030     0.08400
N2184       N  0.58917577  0.05956748  0.54464433    -0.45400
H2185       H  0.97142354  0.40844377  0.53723563     0.08400
C2186       C  0.92196664  0.41328323  0.90323266     0.44100
C2187       C  0.59956257  0.46416805  0.52961435    -0.04900
Co2188     Co  0.00962118  0.44213693  0.96436056     0.73800
N2189       N  0.91890257  0.47440363  0.53642229    -0.45100
C2190       C  0.58539097  0.10652448  0.92084400     0.44300
N2191       N  0.55046775  0.42984485  0.89819381    -0.45100
Co2192     Co  0.93604037  0.00507547  0.97471660     0.73900
C2193       C  0.91825184  0.04327242  0.90799111    -0.05500
C2194       C  0.54728943  0.09977005  0.55390094    -0.05000
N2195       N  0.56355646  0.47855862  0.92913682    -0.24500
N2196       N  0.95259096  0.10794886  0.52068003    -0.45300
H2197       H  0.53095089  0.13109526  0.92599115     0.08300
C2198       C  0.95898214  0.40922653  0.90964779    -0.05400
Cl2199     Cl  0.50324691  0.01174120  0.97038295    -0.48400
C2200       C  0.92653245  0.44687339  0.55333075     0.44100
H2201       H  0.60465042  0.49374458  0.89568960     0.08300
N2202       N  0.91345049  0.44527952  0.91855636    -0.45100
C2203       C  0.82860229  0.32193459  0.86862110    -0.14900
C2204       C  0.80131439  0.31159920  0.84724768    -0.30100
H2205       H  0.83494819  0.30820320  0.89064746     0.14100
H2206       H  0.79561932  0.32608430  0.82555887     0.14700
C2207       C  0.67423514  0.32967693  0.54501984    -0.14900
C2208       C  0.68814002  0.30930962  0.56814124    -0.30100
H2209       H  0.68703700  0.33161997  0.51990598     0.14100
H2210       H  0.67710049  0.30898455  0.59405665     0.14700
C2211       C  0.84053762  0.41386089  0.77499557    -0.14900
C2212       C  0.83779398  0.42217113  0.80980005    -0.30100
H2213       H  0.86000941  0.39528793  0.76390224     0.14100
H2214       H  0.82072926  0.44265682  0.82145368     0.14700
C2215       C  0.65950066  0.35221180  0.65390661    -0.14900
C2216       C  0.64942873  0.38126982  0.64107878    -0.30100
H2217       H  0.64577120  0.32854452  0.64855391     0.14100
H2218       H  0.66293747  0.40480911  0.64946257     0.14700
C2219       C  0.84674641  0.19761221  0.89838442    -0.14900
C2220       C  0.84562990  0.16575731  0.90600972    -0.30100
H2221       H  0.87238738  0.20864391  0.89638308     0.14100
H2222       H  0.82095627  0.15470413  0.91204028     0.14700
C2223       C  0.83597375  0.36736243  0.50833802    -0.14900
C2224       C  0.80179398  0.36504449  0.51086662    -0.30100
H2225       H  0.85097124  0.34494760  0.49782484     0.14100
H2226       H  0.78742337  0.38889565  0.51748632     0.14700
C2227       C  0.81388786  0.42267027  0.62804591    -0.14900
C2228       C  0.79041735  0.39899194  0.63811133    -0.30100
H2229       H  0.81420717  0.44756070  0.64365257     0.14100
H2230       H  0.79030157  0.37357567  0.62383775     0.14700
C2231       C  0.88798895  0.30734789  0.77224548    -0.14900
C2232       C  0.90869769  0.33263639  0.78693170    -0.30100
H2233       H  0.86346303  0.30296221  0.78509356     0.14100
H2234       H  0.93345702  0.33770486  0.77515307     0.14700
C2235       C  0.92384671  0.17106964  0.81499856    -0.14900
C2236       C  0.91347142  0.16739426  0.78108040    -0.30100
H2237       H  0.93291034  0.19549505  0.82746795     0.14100
H2238       H  0.90497741  0.14236155  0.76943563     0.14700
C2239       C  0.88686053  0.34325435  0.61142849    -0.14900
C2240       C  0.86556175  0.34351493  0.63978542    -0.30100
H2241       H  0.90573875  0.32282821  0.60469050     0.14100
H2242       H  0.84991000  0.36599033  0.64814915     0.14700
C2243       C  0.68591828  0.18789765  0.88636824    -0.14900
C2244       C  0.70755870  0.19721570  0.86007101    -0.30100
H2245       H  0.68572946  0.20320615  0.91195069     0.14100
H2246       H  0.70781157  0.18125491  0.83488271     0.14700
C2247       C  0.81524314  0.23103843  0.54588875    -0.14900
C2248       C  0.82156256  0.19816708  0.53185149    -0.30100
H2249       H  0.83569498  0.24419894  0.56135474     0.14100
H2250       H  0.80223719  0.18416175  0.51558759     0.14700
C2251       C  0.91405343  0.21525751  0.61486658    -0.14900
C2252       C  0.90519615  0.21033324  0.64817943    -0.30100
H2253       H  0.92401011  0.23954185  0.60893898     0.14100
H2254       H  0.89658398  0.18503707  0.65235279     0.14700
C2255       C  0.82468740  0.12558645  0.77869116    -0.14900
C2256       C  0.83485480  0.10175461  0.80056597    -0.30100
H2257       H  0.83964391  0.14870261  0.77928215     0.14100
H2258       H  0.82062793  0.07822918  0.80018666     0.14700
C2259       C  0.66438038  0.07835256  0.82159720    -0.14900
C2260       C  0.69863831  0.07952608  0.82394255    -0.30100
H2261       H  0.65206390  0.07191888  0.79624174     0.14100
H2262       H  0.70977237  0.08348551  0.85030522     0.14700
C2263       C  0.83329987  0.14816829  0.62917626    -0.14900
C2264       C  0.82420363  0.17558670  0.65208761    -0.30100
H2265       H  0.82405569  0.12309589  0.63360328     0.14100
H2266       H  0.83481942  0.20059350  0.65070779     0.14700
C2267       C  0.66792147  0.35356870  0.84783999    -0.14900
C2268       C  0.66515330  0.32416037  0.82630431    -0.30100
H2269       H  0.68812965  0.35709292  0.86760761     0.14100
H2270       H  0.64375691  0.32047194  0.80806374     0.14700
C2271       C  0.66956786  0.44029716  0.77406370    -0.14900
C2272       C  0.70043758  0.42356206  0.76489931    -0.30100
H2273       H  0.65972584  0.45912946  0.75804996     0.14100
H2274       H  0.70934198  0.40609714  0.78300059     0.14700
C2275       C  0.62382573  0.20218901  0.80852855    -0.14900
C2276       C  0.60049415  0.17882782  0.81631377    -0.30100
H2277       H  0.64786210  0.20458699  0.82285365     0.14100
H2278       H  0.57521616  0.17740368  0.80386372     0.14700
C2279       C  0.55984055  0.32364000  0.59206428    -0.14900
C2280       C  0.55427093  0.33173739  0.62688838    -0.30100
H2281       H  0.56499173  0.29708586  0.58236572     0.14100
H2282       H  0.54808062  0.35837117  0.63584018     0.14700
C2283       C  0.58138313  0.32645642  0.77016286    -0.14900
C2284       C  0.59313492  0.35769040  0.76595201    -0.30100
H2285       H  0.57281380  0.32187170  0.79642507     0.14100
H2286       H  0.60572202  0.36171789  0.74129372     0.14700
C2287       C  0.67126419  0.17835416  0.59100622    -0.14900
C2288       C  0.70069328  0.18447323  0.60937334    -0.30100
H2289       H  0.66372487  0.19401462  0.57072202     0.14100
H2290       H  0.70928304  0.16679524  0.62703091     0.14700
C2291       C  0.68672816  0.09842802  0.66098910    -0.14900
C2292       C  0.70051720  0.12015875  0.68860763    -0.30100
H2293       H  0.69988373  0.07436562  0.65253756     0.14100
H2294       H  0.68562236  0.14293504  0.69780805     0.14700
C2295       C  0.59785405  0.20844462  0.66700618    -0.14900
C2296       C  0.59111160  0.17616412  0.67246983    -0.30100
H2297       H  0.61024254  0.21273133  0.64215185     0.14100
H2298       H  0.57867436  0.16996356  0.69642475     0.14700
C2299       C  0.59377465  0.60674514  0.09377591     0.88000
C2300       C  0.62187567  0.58894599  0.11551718    -0.52300
C2301       C  0.64437554  0.61116452  0.13498047     0.10900
C2302       C  0.63681895  0.64843391  0.12953154     0.21900
C2303       C  0.57597696  0.63344342  0.12173736    -0.53000
C2304       C  0.59869166  0.65580818  0.13971911     0.11000
C2305       C  0.61505898  0.62826235  0.07090191    -0.52500
C2306       C  0.63745312  0.64960110  0.08942448     0.11600
H2307       H  0.62388494  0.56146429  0.11507362     0.16100
H2308       H  0.65500353  0.66656373  0.14396945     0.01800
H2309       H  0.54801253  0.63579644  0.12528445     0.16400
H2310       H  0.61239667  0.62701712  0.04236972     0.16200
C2311       C  0.60111284  0.74719189  0.19261817     0.31500
C2312       C  0.59415865  0.80131523  0.24346154     0.31500
C2313       C  0.62632535  0.77686747  0.18911484    -0.04700
C2314       C  0.56613873  0.76597037  0.19331308    -0.05500
C2315       C  0.60518317  0.73924823  0.23087247    -0.05400
C2316       C  0.62354573  0.80460372  0.21655257    -0.04700
C2317       C  0.56273298  0.79422503  0.21986049    -0.05500
C2318       C  0.60149809  0.76686034  0.25671171    -0.05400
C2319       C  0.63105236  0.83375764  0.20141838    -0.30700
N2320       N  0.63582784  0.82586322  0.16640171     0.15800
C2321       C  0.63291371  0.79172083  0.15838455    -0.30800
H2322       H  0.63153194  0.77893979  0.13162692     0.17700
C2323       C  0.52892774  0.79601872  0.23057927    -0.29700
N2324       N  0.01660013  0.73330810  0.25390585     0.14500
C2325       C  0.53386785  0.75218572  0.18916734    -0.29700
C2326       C  0.59911164  0.75420957  0.28888680    -0.30000
N2327       N  0.60096433  0.71965241  0.28322103     0.15000
H2328       H  0.59503165  0.76890073  0.31451930     0.17600
C2329       C  0.60461807  0.71016174  0.24783989    -0.30000
H2330       H  0.60620444  0.68405922  0.23540728     0.17600
H2331       H  0.02291353  0.68963824  0.21402059     0.17600
H2332       H  0.62808221  0.85967452  0.21400734     0.17700
H2333       H  0.03121030  0.78183612  0.28220970     0.17600
C2334       C  0.60108059  0.92656431  0.34949313     0.88000
C2335       C  0.62774236  0.94776103  0.32968182    -0.52300
C2336       C  0.64563528  0.92922101  0.30174841     0.10900
C2337       C  0.63527576  0.89168899  0.29694364     0.21900
C2338       C  0.57776504  0.90911012  0.31987939    -0.53000
C2339       C  0.59589178  0.89062454  0.29278471     0.11000
C2340       C  0.62370300  0.89705701  0.36033453    -0.52500
C2341       C  0.64133541  0.87872513  0.33274501     0.11600
H2342       H  0.63300042  0.97445552  0.33796787     0.16100
H2343       H  0.64947098  0.87668463  0.27479803     0.01800
H2344       H  0.54964834  0.90849562  0.32203865     0.16400
H2345       H  0.62523120  0.89094631  0.38733910     0.16200
C2346       C  0.72301958  0.61848473  0.20637924     0.31500
C2347       C  0.78120540  0.61901379  0.24805243     0.31500
C2348       C  0.71678894  0.61466461  0.24497651    -0.04700
C2349       C  0.74963769  0.58951738  0.19565651    -0.05500
C2350       C  0.74505654  0.65081948  0.20825066    -0.05400
C2351       C  0.74648411  0.61447424  0.26645619    -0.04700
C2352       C  0.78127350  0.59211623  0.21534066    -0.05500
C2353       C  0.77513402  0.65132131  0.23014089    -0.05400
C2354       C  0.73938324  0.59314715  0.29149274    -0.30700
N2355       N  0.70742939  0.58043453  0.28582544     0.15800
C2356       C  0.69398028  0.59270801  0.25722093    -0.30800
H2357       H  0.67025204  0.58432543  0.24409391     0.17700
C2358       C  0.79451778  0.56050291  0.21545571    -0.29700
N2359       N  0.76496570  0.03935730  0.20868322     0.14500
C2360       C  0.74277208  0.55496771  0.19171353    -0.29700
C2361       C  0.80108312  0.66471541  0.21123148    -0.30000
N2362       N  0.78905217  0.67011543  0.17928199     0.15000
H2363       H  0.82840257  0.66133357  0.21633110     0.17600
C2364       C  0.75488441  0.66424921  0.17812302    -0.30000
H2365       H  0.74066517  0.66054364  0.15356322     0.17600
H2366       H  0.71344556  0.04559659  0.18929936     0.17600
H2367       H  0.75685360  0.58591664  0.31145383     0.17700
H2368       H  0.81097496  0.05397807  0.23674899     0.17600
C2369       C  0.90309287  0.62607592  0.06810440     0.88000
C2370       C  0.88167587  0.65111795  0.04741882    -0.52300
C2371       C  0.86520649  0.67743452  0.06881538     0.10900
C2372       C  0.87271595  0.67616135  0.10775471     0.21900
C2373       C  0.92805979  0.64924221  0.09202280    -0.53000
C2374       C  0.91173347  0.67561749  0.11251963     0.11000
C2375       C  0.87634414  0.61447029  0.09465032    -0.52500
C2376       C  0.86022675  0.64128716  0.11483238     0.11600
H2377       H  0.87799941  0.64688143  0.01899988     0.16100
H2378       H  0.86083287  0.69636683  0.12641653     0.01800
H2379       H  0.95568728  0.64407452  0.09392839     0.16400
H2380       H  0.87036108  0.58800773  0.09685464     0.16200
C2381       C  0.60572700  0.61428515  0.38590934     0.88000
C2382       C  0.58358449  0.63249837  0.35962696    -0.52300
C2383       C  0.60248721  0.64157593  0.33139441     0.10900
C2384       C  0.64080586  0.63100486  0.33131974     0.21900
C2385       C  0.62253614  0.58425766  0.36333003    -0.53000
C2386       C  0.64025132  0.59246648  0.33542406     0.11000
C2387       C  0.63591785  0.64023015  0.39527541    -0.52500
C2388       C  0.65397299  0.64993773  0.36619339     0.11600
H2389       H  0.55645756  0.63957061  0.36407785     0.16100
H2390       H  0.65523626  0.63718841  0.30759271     0.01800
H2391       H  0.61965601  0.55776343  0.36792167     0.16400
H2392       H  0.64008632  0.65227640  0.42204730     0.16200
C2393       C  0.89788993  0.78482919  0.25265904     0.31500
C2394       C  0.90889566  0.74853584  0.18899791     0.31500
C2395       C  0.88775824  0.80380461  0.22126747    -0.04700
C2396       C  0.93574557  0.77419448  0.24451367    -0.05500
C2397       C  0.87914524  0.75068747  0.24748442    -0.05400
C2398       C  0.89429445  0.78503122  0.18786650    -0.04700
C2399       C  0.94125943  0.75596025  0.21081604    -0.05500
C2400       C  0.88537109  0.73093559  0.21452881    -0.05400
C2401       C  0.91011049  0.80794940  0.16770341    -0.30700
N2402       N  0.91420695  0.83862327  0.18706395     0.15800
C2403       C  0.89852373  0.83679142  0.21852017    -0.30800
H2404       H  0.90293917  0.85561143  0.24105103     0.17700
C2405       C  0.45947066  0.73856079  0.20023071    -0.29700
N2406       N  0.48028363  0.75773022  0.22236857     0.14500
C2407       C  0.46343163  0.76787433  0.25306736    -0.29700
C2408       C  0.88952686  0.69747807  0.22274738    -0.30000
N2409       N  0.88637637  0.69658912  0.25810619     0.15000
H2410       H  0.89903638  0.67604299  0.20474216     0.17600
C2411       C  0.87905521  0.72849748  0.27300024    -0.30000
H2412       H  0.87885856  0.73617649  0.30127141     0.17600
H2413       H  0.47253396  0.78681580  0.27362888     0.17600
H2414       H  0.92598596  0.79983388  0.14450941     0.17700
H2415       H  0.46457289  0.73204799  0.17220585     0.17600
C2416       C  0.91255072  0.92543499  0.08940410     0.88000
C2417       C  0.89139101  0.89330491  0.07702513    -0.52300
C2418       C  0.87838923  0.87739814  0.10418764     0.10900
C2419       C  0.88924280  0.89314995  0.14092780     0.21900
C2420       C  0.88687592  0.94692396  0.11633083    -0.53000
C2421       C  0.87457025  0.92940689  0.14375515     0.11000
C2422       C  0.94070500  0.91293326  0.11326587    -0.52500
C2423       C  0.92869960  0.89551215  0.13959619     0.11600
H2424       H  0.88459627  0.88583523  0.04957537     0.16100
H2425       H  0.87966280  0.87870196  0.16171906     0.01800
H2426       H  0.87762444  0.97226663  0.11255394     0.16400
H2427       H  0.96824436  0.91696387  0.10918047     0.16200
C2428       C  0.90253426  0.59224247  0.36373208     0.88000
C2429       C  0.87816058  0.60959798  0.39220651    -0.52300
C2430       C  0.85525653  0.63125614  0.38023265     0.10900
C2431       C  0.85839576  0.63514268  0.34063838     0.21900
C2432       C  0.87668271  0.57604006  0.33380742    -0.53000
C2433       C  0.85373978  0.59970925  0.32114924     0.11000
C2434       C  0.91957424  0.62170046  0.34632891    -0.52500
C2435       C  0.89609040  0.64347244  0.33360512     0.11600
H2436       H  0.87860699  0.60484910  0.41975335     0.16100
H2437       H  0.84003366  0.65440508  0.33256748     0.01800
H2438       H  0.87705603  0.54917015  0.32360967     0.16400
H2439       H  0.94740945  0.62390259  0.34268657     0.16200
C2440       C  0.72566418  0.92691254  0.23438588     0.31500
C2441       C  0.79345434  0.92275841  0.21002260     0.31500
C2442       C  0.73079874  0.91716824  0.19463070    -0.04700
C2443       C  0.74639119  0.96001913  0.24065024    -0.05500
C2444       C  0.74856640  0.90020214  0.24878554    -0.05400
C2445       C  0.76557404  0.91508447  0.18225266    -0.04700
C2446       C  0.78203295  0.95693894  0.22995962    -0.05500
C2447       C  0.78354469  0.89780665  0.23625793    -0.05400
C2448       C  0.76558937  0.92110683  0.14772798    -0.33600
N2449       N  0.73299629  0.92795609  0.13917546     0.15800
C2450       C  0.71159565  0.92613613  0.16732367    -0.30800
H2451       H  0.68418536  0.93256835  0.16857503     0.17700
C2452       C  0.79643491  0.48691895  0.21734693    -0.29700
N2453       N  0.76869761  0.50732449  0.21790291     0.14500
C2454       C  0.74109102  0.49262616  0.23154082    -0.29700
C2455       C  0.80260003  0.88962000  0.26405336    -0.30000
N2456       N  0.78113630  0.88765545  0.29209707     0.15000
H2457       H  0.83059465  0.89150066  0.26575447     0.17600
C2458       C  0.74832536  0.89273027  0.28288444    -0.30000
H2459       H  0.72714828  0.89777400  0.30175422     0.17600
H2460       H  0.71476743  0.50253602  0.23173674     0.17600
H2461       H  0.78761810  0.92290368  0.13032778     0.17700
H2462       H  0.82114944  0.49265295  0.20602067     0.17600
C2463       C  0.62404516  0.90874227  0.03686463     0.88000
C2464       C  0.64583737  0.93535442  0.05851423    -0.52300
C2465       C  0.66842067  0.92260893  0.07951258     0.10900
C2466       C  0.66686891  0.88395687  0.08018096     0.21900
C2467       C  0.65130109  0.88177816  0.01855225    -0.53000
C2468       C  0.67308294  0.86791331  0.04229956     0.11000
C2469       C  0.60598109  0.88916988  0.06490958    -0.52500
C2470       C  0.62884549  0.87623900  0.08769468     0.11600
H2471       H  0.64424731  0.96273930  0.05804752     0.16100
H2472       H  0.68577612  0.87471575  0.09871814     0.01800
H2473       H  0.62776762  0.86775056  0.49895304     0.16400
H2474       H  0.57816300  0.88523277  0.06605465     0.16200
C2475       C  0.89496750  0.88940778  0.39101934     0.88000
C2476       C  0.87199044  0.86052364  0.40501420    -0.52300
C2477       C  0.85064249  0.84318176  0.37930759     0.10900
C2478       C  0.85565605  0.85646282  0.34360034     0.21900
C2479       C  0.91514106  0.87054325  0.35920272    -0.53000
C2480       C  0.89453486  0.85278077  0.33489577     0.11000
C2481       C  0.86869048  0.91195971  0.37490152    -0.52500
C2482       C  0.84804338  0.89474859  0.35130028     0.11600
H2483       H  0.87223260  0.85505866  0.43226309     0.16100
H2484       H  0.83997994  0.84444226  0.32155923     0.01800
H2485       H  0.94320585  0.87069016  0.35626217     0.16400
H2486       H  0.86539145  0.93929016  0.38208323     0.16200
C2487       C  0.79333696  0.75130728  0.07328024     0.31500
C2488       C  0.73839795  0.79295652  0.06196664     0.31500
C2489       C  0.78344445  0.77758586  0.10476065    -0.04700
C2490       C  0.79880937  0.77372492  0.04382338    -0.05500
C2491       C  0.75934360  0.73351498  0.06427017    -0.05400
C2492       C  0.75577300  0.80025839  0.09833612    -0.04700
C2493       C  0.76936176  0.79413084  0.03658291    -0.05500
C2494       C  0.73089609  0.75457597  0.05905150    -0.05400
C2495       C  0.76675027  0.83227795  0.11197926    -0.30700
N2496       N  0.79872622  0.82970788  0.12542175     0.15800
C2497       C  0.80792155  0.79681697  0.12356725    -0.30800
H2498       H  0.83455379  0.78882332  0.12690655     0.17700
C2499       C  0.71720334  0.75759590  0.49380459    -0.29700
N2500       N  0.74329673  0.74434752  0.47331642     0.14500
C2501       C  0.76925394  0.73322701  0.49215049    -0.29700
C2502       C  0.70168978  0.73583130  0.06381894    -0.30000
N2503       N  0.71205424  0.70448510  0.07119198     0.15000
H2504       H  0.67524176  0.74549238  0.06602885     0.17600
C2505       C  0.74695793  0.70313914  0.07226087    -0.30000
H2506       H  0.76195908  0.68282484  0.08176902     0.17600
H2507       H  0.79496105  0.72672379  0.48156778     0.17600
H2508       H  0.75628810  0.85579666  0.10421115     0.17700
H2509       H  0.69578449  0.77188455  0.48448677     0.17600
C2510       C  0.77254210  0.77510499  0.35731859     0.31500
C2511       C  0.72555412  0.72254686  0.34863094     0.31500
C2512       C  0.78856021  0.73950078  0.34967395    -0.04700
C2513       C  0.74862651  0.77209475  0.38927736    -0.05500
C2514       C  0.74634929  0.77629415  0.32736294    -0.05400
C2515       C  0.76437265  0.71215042  0.34587047    -0.04700
C2516       C  0.72469251  0.74426165  0.38447398    -0.05500
C2517       C  0.72177391  0.74953094  0.32287979    -0.05400
C2518       C  0.77865390  0.68739505  0.36421195    -0.30700
N2519       N  0.80892745  0.69855781  0.37882664     0.15800
C2520       C  0.81589452  0.72908483  0.36876457    -0.30800
H2521       H  0.83671867  0.74505845  0.37973115     0.17700
C2522       C  0.72395299  0.73047865  0.41550414    -0.29700
N2523       N  0.74473002  0.74802869  0.43801833     0.14500
C2524       C  0.75916226  0.77396597  0.42383002    -0.29700
C2525       C  0.69108171  0.76474818  0.31367743    -0.30000
N2526       N  0.69626999  0.79833119  0.31211060     0.15000
H2527       H  0.66574910  0.75332823  0.31404785     0.17600
C2528       C  0.72940351  0.80547841  0.32018992    -0.30000
H2529       H  0.73887922  0.83121438  0.32608627     0.17600
H2530       H  0.77810835  0.79088933  0.43699166     0.17600
H2531       H  0.76469411  0.66559565  0.37141733     0.17700
H2532       H  0.71402765  0.70610671  0.42067397     0.17600
C2533       C  0.60029814  0.92813380  0.01354998     0.44000
N2534       N  0.55173500  0.95093564  0.99851649     0.02800
C2535       C  0.54864436  0.60270547  0.42436381    -0.05000
H2536       H  0.52089627  0.61795347  0.06083740     0.08300
C2537       C  0.91205903  0.56158042  0.03166139    -0.05400
Co2538     Co  0.57027028  0.51639444  0.47560659     0.74200
N2539       N  0.53209952  0.57437649  0.02206776    -0.24600
Co2540     Co  0.49818073  0.57203810  0.47573148     0.74100
C2541       C  0.92257690  0.59679709  0.04511974     0.44100
N2542       N  0.93907546  0.96985196  0.01304496     0.02500
N2543       N  0.96184181  0.57200552  0.00925038     0.02600
N2544       N  0.59598610  0.57031746  0.42899205    -0.45400
H2545       H  0.62896376  0.97732052  0.00449295     0.08300
N2546       N  0.55832797  0.55195656  0.01970281     0.02800
N2547       N  0.96292938  0.56547371  0.42859665     0.02600
C2548       C  0.92885165  0.57008506  0.38245984     0.44200
N2549       N  0.96398129  0.94599553  0.00938753    -0.24000
C2550       C  0.58860573  0.97834360  0.40197864    -0.04900
N2551       N  0.56606295  0.92260787  0.00820401    -0.45100
N2552       N  0.95639121  0.58381902  0.40195744    -0.45300
C2553       C  0.58010825  0.94571078  0.38142724     0.44000
N2554       N  0.56860639  0.55683797  0.44344766     0.02800
N2555       N  0.96743563  0.94036661  0.43139466    -0.24000
N2556       N  0.57376818  0.97624402  0.99901440    -0.24500
N2557       N  0.94094588  0.96197407  0.43473624     0.02500
H2558       H  0.97095420  0.88590870  0.41786287     0.08400
H2559       H  0.89561823  0.52561533  0.39705501     0.08400
N2560       N  0.54047263  0.57579963  0.44158062    -0.24600
N2561       N  0.93808616  0.54829656  0.00962152    -0.24200
N2562       N  0.54565023  0.95543403  0.42820805     0.02800
C2563       C  0.56876339  0.58387603  0.06965623     0.44200
C2564       C  0.95967490  0.92643393  0.03586979    -0.05400
N2565       N  0.94029988  0.54032372  0.42895221    -0.24200
H2566       H  0.88743661  0.54947641  0.03526017     0.08400
N2567       N  0.58041602  0.55716201  0.04652068    -0.45400
H2568       H  0.97569684  0.90457826  0.03982653     0.08400
C2569       C  0.91815628  0.91232559  0.41611897     0.44100
C2570       C  0.60482361  0.96412001  0.00739454    -0.04900
Co2571     Co  0.00938706  0.94651378  0.46447594     0.73800
N2572       N  0.91817737  0.96758895  0.04101962    -0.45100
C2573       C  0.58604960  0.59980861  0.41628497     0.44300
N2574       N  0.55336535  0.93292344  0.39985040    -0.45100
Co2575     Co  0.93949507  0.50884282  0.47068460     0.73900
C2576       C  0.91842498  0.54124764  0.40145719    -0.05500
C2577       C  0.53685104  0.59570632  0.05235136    -0.05000
N2578       N  0.56653099  0.98214467  0.42995681    -0.24500
N2579       N  0.95353104  0.60086565  0.02938271    -0.45300
H2580       H  0.53142211  0.62398018  0.42147655     0.08300
C2581       C  0.95587713  0.90926563  0.41864184    -0.05400
Cl2582     Cl  0.50564522  0.50985351  0.47301786    -0.48400
C2583       C  0.92961379  0.94092639  0.05755248     0.44100
H2584       H  0.60983870  0.99520979  0.39800090     0.08300
N2585       N  0.91148020  0.94617831  0.42573501    -0.45100
C2586       C  0.82461834  0.81473066  0.38389146    -0.14900
C2587       C  0.79906286  0.80509234  0.35948216    -0.30100
H2588       H  0.82723239  0.80150547  0.40703640     0.14100
H2589       H  0.79674879  0.81941435  0.33738081     0.14700
C2590       C  0.70075354  0.84010217  0.03500360    -0.14900
C2591       C  0.70636072  0.81671120  0.05847799    -0.30100
H2592       H  0.71823101  0.84163346  0.01288497     0.14100
H2593       H  0.68700210  0.81573806  0.07925281     0.14700
C2594       C  0.79183901  0.89265199  0.32773045    -0.14900
C2595       C  0.81974992  0.91130621  0.33542672    -0.30100
H2596       H  0.78301318  0.87488125  0.34537520     0.14100
H2597       H  0.82668224  0.93155417  0.31978990     0.14700
C2598       C  0.72300003  0.93300773  0.10462992    -0.14900
C2599       C  0.69154272  0.94501942  0.10044682    -0.30100
H2600       H  0.73555712  0.91678353  0.08289452     0.14100
H2601       H  0.67960810  0.96340885  0.12064203     0.14700
C2602       C  0.82986850  0.68292386  0.40331332    -0.14900
C2603       C  0.82883373  0.64937527  0.40291598    -0.30100
H2604       H  0.85479914  0.69485094  0.40949099     0.14100
H2605       H  0.80384470  0.63695522  0.40073604     0.14700
C2606       C  0.85012321  0.85252482  0.10042274    -0.14900
C2607       C  0.82408263  0.85533479  0.12458049    -0.30100
H2608       H  0.85057739  0.83206301  0.07860703     0.14100
H2609       H  0.82204445  0.87678527  0.14435689     0.14700
C2610       C  0.84330915  0.93964232  0.16795376    -0.14900
C2611       C  0.83137151  0.92144034  0.19462050    -0.30100
H2612       H  0.82692255  0.95957777  0.15958536     0.14100
H2613       H  0.84820097  0.90243285  0.20401113     0.14700
C2614       C  0.89006553  0.80448753  0.28847448    -0.14900
C2615       C  0.90802776  0.83161536  0.30282335    -0.30100
H2616       H  0.86776371  0.79628407  0.30277680     0.14100
H2617       H  0.93215092  0.83857370  0.29071415     0.14700
C2618       C  0.90403814  0.67043539  0.31080727    -0.14900
C2619       C  0.89268346  0.66744303  0.27694504    -0.30100
H2620       H  0.91308676  0.69472509  0.32362185     0.14100
H2621       H  0.88571439  0.64239672  0.26411824     0.14700
C2622       C  0.95282169  0.88129773  0.16430850    -0.14900
C2623       C  0.94598716  0.85742318  0.18578105    -0.30100
H2624       H  0.97897797  0.89142650  0.16536011     0.14100
H2625       H  0.96673817  0.85114329  0.20315753     0.14700
C2626       C  0.67544891  0.68258673  0.36785686    -0.14900
C2627       C  0.70013243  0.69098835  0.34375844    -0.30100
H2628       H  0.66855953  0.70128904  0.38997160     0.14100
H2629       H  0.70449449  0.67313233  0.32010100     0.14700
C2630       C  0.82427490  0.72795569  0.07979943    -0.14900
C2631       C  0.83678204  0.70051833  0.05773840    -0.30100
H2632       H  0.83696370  0.73485661  0.10456459     0.14100
H2633       H  0.82445668  0.69336935  0.03245917     0.14700
C2634       C  0.92663748  0.69772569  0.14311585    -0.14900
C2635       C  0.91307246  0.72947304  0.15175235    -0.30100
H2636       H  0.94173058  0.68538266  0.16189283     0.14100
H2637       H  0.89952291  0.74083995  0.13103388     0.14700
C2638       C  0.81329846  0.61963958  0.27352412    -0.14900
C2639       C  0.82582985  0.59400896  0.29237715    -0.30100
H2640       H  0.82596515  0.64404960  0.27730593     0.14100
H2641       H  0.81416829  0.56901862  0.28860973     0.14700
C2642       C  0.65456763  0.56533133  0.31009349    -0.14900
C2643       C  0.68888164  0.56245552  0.31005303    -0.30100
H2644       H  0.64100960  0.56264929  0.28512513     0.14100
H2645       H  0.70121585  0.56121016  0.33548953     0.14700
C2646       C  0.83287746  0.63939067  0.14169058    -0.14900
C2647       C  0.80976503  0.66549603  0.14798417    -0.30100
H2648       H  0.83383439  0.61909907  0.15855592     0.14100
H2649       H  0.80597105  0.68352526  0.12899793     0.14700
C2650       C  0.66410155  0.84885708  0.33662543    -0.14900
C2651       C  0.67007051  0.82381890  0.30973330    -0.30100
H2652       H  0.67674297  0.84755665  0.36182507     0.14100
H2653       H  0.65670494  0.82324235  0.28489919     0.14700
C2654       C  0.67714493  0.94126039  0.28223590    -0.14900
C2655       C  0.68777914  0.92691410  0.24911311    -0.30100
H2656       H  0.69411356  0.95930892  0.29720406     0.14100
H2657       H  0.67019304  0.90966206  0.23396612     0.14700
C2658       C  0.60199348  0.69776101  0.31087835    -0.14900
C2659       C  0.59064206  0.66536334  0.30660530    -0.30100
H2660       H  0.61386362  0.70759452  0.33579121     0.14100
H2661       H  0.57792862  0.65508656  0.28237694     0.14700
C2662       C  0.61973985  0.85294924  0.11424377    -0.14900
C2663       C  0.64021743  0.85094528  0.14250598    -0.30100
H2664       H  0.59759224  0.83625371  0.10970382     0.14100
H2665       H  0.65969990  0.87022422  0.14925572     0.14700
C2666       C  0.58974701  0.83069268  0.27287972    -0.14900
C2667       C  0.58126242  0.86293945  0.26784268    -0.30100
H2668       H  0.59723836  0.82600616  0.29929931     0.14100
H2669       H  0.57254029  0.86879119  0.24220670     0.14700
C2670       C  0.65881024  0.67360906  0.07278054    -0.14900
C2671       C  0.69087022  0.67953469  0.08439231    -0.30100
H2672       H  0.64860275  0.68603117  0.05104012     0.14100
H2673       H  0.70187388  0.66433192  0.10361728     0.14700
C2674       C  0.67560001  0.60110983  0.15661284    -0.14900
C2675       C  0.68879761  0.62207136  0.18478127    -0.30100
H2676       H  0.68828374  0.57682504  0.14822545     0.14100
H2677       H  0.67389892  0.64505888  0.19367193     0.14700
C2678       C  0.60623904  0.71627162  0.16484806    -0.14900
C2679       C  0.58814226  0.68684998  0.16394767    -0.30100
H2680       H  0.62703052  0.71775527  0.14567140     0.14100
H2681       H  0.56652335  0.68493134  0.18201683     0.14700
C2682       C  0.59733252  0.61169995  0.59154031     0.88000
C2683       C  0.62344008  0.59153154  0.61298916    -0.52300
C2684       C  0.64520903  0.61187806  0.63513616     0.10900
C2685       C  0.63883072  0.64947018  0.63338357     0.21900
C2686       C  0.57843197  0.63698572  0.61986785    -0.53000
C2687       C  0.60052121  0.65737852  0.64086222     0.11000
C2688       C  0.62135100  0.63455155  0.57212547    -0.52500
C2689       C  0.64343019  0.65355580  0.59427793     0.11600
H2690       H  0.62635623  0.56396595  0.60865643     0.16100
H2691       H  0.65591771  0.66558637  0.65161537     0.01800
H2692       H  0.55041702  0.64037319  0.62117417     0.16400
H2693       H  0.62120236  0.63528842  0.54370011     0.16200
C2694       C  0.60410263  0.74824380  0.69330901     0.31500
C2695       C  0.59514108  0.80215880  0.74385113     0.31500
C2696       C  0.63046811  0.77714665  0.69172880    -0.04700
C2697       C  0.56961541  0.76746092  0.69167636    -0.05500
C2698       C  0.60571035  0.74029470  0.73164828    -0.05400
C2699       C  0.62565113  0.80523553  0.71815130    -0.04700
C2700       C  0.56495706  0.79550250  0.71810572    -0.05500
C2701       C  0.60067747  0.76747649  0.75777086    -0.05400
C2702       C  0.63397428  0.83430212  0.70291596    -0.30700
N2703       N  0.64363765  0.82532406  0.66904746     0.15800
C2704       C  0.64115539  0.79111380  0.66179607    -0.30800
H2705       H  0.64149863  0.77798823  0.63530578     0.17700
C2706       C  0.53026127  0.79765768  0.72561120    -0.29700
N2707       N  0.02390008  0.74836714  0.72885813     0.14500
C2708       C  0.53739862  0.75447776  0.68391594    -0.29700
C2709       C  0.59860039  0.75386534  0.78981957    -0.30000
N2710       N  0.60274488  0.71929553  0.78316713     0.15000
H2711       H  0.59457685  0.76795987  0.81575232     0.17600
C2712       C  0.60748896  0.71109166  0.74783094    -0.30000
H2713       H  0.61148939  0.68539906  0.73480725     0.17600
H2714       H  0.03395348  0.71112728  0.68324917     0.17600
H2715       H  0.62919833  0.86038336  0.71444437     0.17700
H2716       H  0.03566073  0.78928795  0.76996210     0.17600
C2717       C  0.60949788  0.92966011  0.85136096     0.88000
C2718       C  0.62953296  0.95080737  0.82553680    -0.52300
C2719       C  0.65479383  0.93251487  0.80509396     0.10900
C2720       C  0.65780014  0.89552612  0.81329774     0.21900
C2721       C  0.59596422  0.89813623  0.82759615    -0.53000
C2722       C  0.62172733  0.87995906  0.80837918     0.11000
C2723       C  0.63831269  0.91524935  0.87323416    -0.52500
C2724       C  0.66355096  0.89764698  0.85310549     0.11600
H2725       H  0.62481461  0.97780575  0.82443000     0.16100
H2726       H  0.67815812  0.88028990  0.79759115     0.01800
H2727       H  0.56930190  0.88956824  0.82825008     0.16400
H2728       H  0.63814285  0.91775468  0.90197616     0.16200
C2729       C  0.72699469  0.60138682  0.69905176     0.31500
C2730       C  0.78555289  0.58128272  0.73357278     0.31500
C2731       C  0.72158655  0.58946572  0.73542936    -0.04700
C2732       C  0.74715563  0.57142864  0.67960192    -0.05500
C2733       C  0.75476762  0.62848263  0.70645303    -0.05400
C2734       C  0.75121845  0.57987185  0.75346664    -0.04700
C2735       C  0.77707521  0.56005489  0.69762249    -0.05500
C2736       C  0.78481548  0.61824340  0.72399642    -0.05400
C2737       C  0.74230897  0.58237818  0.78860668    -0.30700
N2738       N  0.70841506  0.59119690  0.79168955     0.15800
C2739       C  0.69569853  0.59604876  0.75968349    -0.30800
H2740       H  0.67085906  0.60780796  0.75518491     0.17700
C2741       C  0.77508616  0.52488146  0.69246379    -0.29700
N2742       N  0.77786737  0.03924616  0.72102157     0.14500
C2743       C  0.73056698  0.54313953  0.66440472    -0.29700
C2744       C  0.81201504  0.63543013  0.71101249    -0.30000
N2745       N  0.80025861  0.65465521  0.68670360     0.15000
H2746       H  0.83911301  0.62902196  0.71331892     0.17600
C2747       C  0.76573727  0.65060337  0.68356934    -0.30000
H2748       H  0.75103999  0.65748212  0.66135229     0.17600
H2749       H  0.72691500  0.04351979  0.69925594     0.17600
H2750       H  0.75951304  0.58145583  0.81074498     0.17700
H2751       H  0.82525971  0.05495252  0.74543047     0.17600
C2752       C  0.89840594  0.63197172  0.55746295     0.88000
C2753       C  0.87607144  0.65468392  0.53540606    -0.52300
C2754       C  0.85759892  0.68019612  0.55568038     0.10900
C2755       C  0.86368785  0.68031849  0.59529655     0.21900
C2756       C  0.92122032  0.65691161  0.58131978    -0.53000
C2757       C  0.90294195  0.68215482  0.60121426     0.11000
C2758       C  0.87216329  0.61903099  0.58333680    -0.52500
C2759       C  0.85428689  0.64459471  0.60333415     0.11600
H2760       H  0.87359677  0.64972992  0.50686659     0.16100
H2761       H  0.84846572  0.70022025  0.61138064     0.01800
H2762       H  0.94894270  0.65313057  0.58452771     0.16400
H2763       H  0.86888887  0.59229041  0.58652894     0.16200
C2764       C  0.60164994  0.62760386  0.90589891     0.88000
C2765       C  0.58229125  0.65520782  0.88695679    -0.52300
C2766       C  0.60328735  0.67071819  0.86422156     0.10900
C2767       C  0.64094218  0.65790009  0.86347550     0.21900
C2768       C  0.61794265  0.60373294  0.87584234    -0.53000
C2769       C  0.63851317  0.61941882  0.85462509     0.11000
C2770       C  0.63315612  0.64739537  0.92444500    -0.52500
C2771       C  0.65329688  0.66426775  0.90173576     0.11600
H2772       H  0.55472475  0.66086123  0.89005787     0.16100
H2773       H  0.65810864  0.66904762  0.84445752     0.01800
H2774       H  0.61391404  0.57632012  0.87153326     0.16400
H2775       H  0.63840476  0.64835319  0.95250344     0.16200
C2776       C  0.89961583  0.77604945  0.75245178     0.31500
C2777       C  0.90170365  0.74627872  0.68497526     0.31500
C2778       C  0.88191295  0.79701454  0.72577848    -0.04700
C2779       C  0.93544193  0.76992125  0.73667216    -0.05500
C2780       C  0.88415363  0.73996898  0.74670053    -0.05400
C2781       C  0.88292204  0.78092657  0.69055833    -0.04700
C2782       C  0.93687109  0.75474397  0.70171051    -0.05500
C2783       C  0.88466653  0.72458381  0.71122356    -0.05400
C2784       C  0.88883423  0.80622199  0.66918333    -0.30700
N2785       N  0.89259882  0.83641322  0.68911604     0.15800
C2786       C  0.88737776  0.83155393  0.72324717    -0.30800
H2787       H  0.89225052  0.85098918  0.74512321     0.17700
C2788       C  0.46193554  0.73880002  0.69189329    -0.29700
N2789       N  0.48223132  0.75890673  0.71408165     0.14500
C2790       C  0.46613053  0.76626970  0.74553494    -0.29700
C2791       C  0.89091597  0.69004303  0.71249073    -0.30000
N2792       N  0.89559094  0.68384788  0.74618590     0.15000
H2793       H  0.89587317  0.67117964  0.68990589     0.17600
C2794       C  0.89142052  0.71380919  0.76718918    -0.30000
H2795       H  0.89691274  0.71729033  0.79521662     0.17600
H2796       H  0.47487449  0.78451493  0.76691428     0.17600
H2797       H  0.89514936  0.80185615  0.64123258     0.17700
H2798       H  0.46663090  0.73329079  0.66370515     0.17600
C2799       C  0.91699096  0.93764396  0.58291973     0.88000
C2800       C  0.89568187  0.91457695  0.55679275    -0.52300
C2801       C  0.87377729  0.89468466  0.57219574     0.10900
C2802       C  0.87502234  0.89792734  0.61254608     0.21900
C2803       C  0.88896004  0.95693515  0.60912332    -0.53000
C2804       C  0.86718279  0.93519105  0.62542264     0.11000
C2805       C  0.93547678  0.91317335  0.60599444    -0.52500
C2806       C  0.91291436  0.89301088  0.62193991     0.11600
H2807       H  0.89721694  0.91437628  0.52821156     0.16100
H2808       H  0.85766451  0.87919138  0.62285204     0.01800
H2809       H  0.88702317  0.98451617  0.61437848     0.16400
H2810       H  0.96336986  0.91229150  0.60971838     0.16200
C2811       C  0.90156936  0.58313804  0.85666962     0.88000
C2812       C  0.87512574  0.61150518  0.87155189    -0.52300
C2813       C  0.85659025  0.62534443  0.84580862     0.10900
C2814       C  0.86686023  0.61111732  0.80817206     0.21900
C2815       C  0.87765478  0.55807360  0.83147021    -0.53000
C2816       C  0.85947095  0.57341206  0.80571700     0.11000
C2817       C  0.92424404  0.60149608  0.83099957    -0.52500
C2818       C  0.90584860  0.61627832  0.80598877     0.11600
H2819       H  0.87119641  0.61949020  0.89961368     0.16100
H2820       H  0.85283650  0.62382369  0.78805811     0.01800
H2821       H  0.87364523  0.53168407  0.83558503     0.16400
H2822       H  0.95183134  0.60566915  0.83486661     0.16200
C2823       C  0.72714825  0.93125664  0.73080738     0.31500
C2824       C  0.78970086  0.92588554  0.69545052     0.31500
C2825       C  0.72588332  0.93494101  0.69150966    -0.04700
C2826       C  0.75406239  0.95851923  0.74385377    -0.05500
C2827       C  0.74709165  0.89754880  0.73152222    -0.05400
C2828       C  0.75798646  0.93276558  0.67391557    -0.04700
C2829       C  0.78770067  0.95373504  0.72711193    -0.05500
C2830       C  0.77938349  0.89453444  0.71301827    -0.05400
C2831       C  0.75468084  0.94909078  0.64458520    -0.33600
N2832       N  0.72143190  0.95956269  0.64253007     0.15800
C2833       C  0.70400916  0.95262604  0.67183355    -0.30800
H2834       H  0.67689418  0.95863204  0.67758886     0.17700
C2835       C  0.73963485  0.45868381  0.65004966    -0.29700
N2836       N  0.72950054  0.48549730  0.67211415     0.14500
C2837       C  0.71316348  0.47569439  0.70068971    -0.29700
C2838       C  0.80136292  0.87794355  0.73372485    -0.30000
N2839       N  0.78439573  0.87150899  0.76325743     0.15000
H2840       H  0.82939538  0.87800038  0.73147615     0.17600
C2841       C  0.75144727  0.88224940  0.76177721    -0.30000
H2842       H  0.73481533  0.88660413  0.78492943     0.17600
H2843       H  0.70842842  0.49258553  0.72489532     0.17600
H2844       H  0.77438469  0.95139270  0.62462192     0.17700
H2845       H  0.75738894  0.46058013  0.62826742     0.17600
C2846       C  0.62335798  0.91290059  0.54527495     0.88000
C2847       C  0.65635577  0.93344586  0.55262395    -0.52300
C2848       C  0.68089193  0.91768044  0.56931983     0.10900
C2849       C  0.67134244  0.88248975  0.57839683     0.21900
C2850       C  0.63688954  0.87820559  0.52485700    -0.53000
C2851       C  0.66187649  0.86209088  0.54337323     0.11000
C2852       C  0.61174384  0.90323338  0.58188332    -0.52500
C2853       C  0.63687569  0.88667229  0.59909358     0.11600
H2854       H  0.66072316  0.95919897  0.54701011     0.16100
H2855       H  0.69315966  0.87136475  0.59190928     0.01800
H2856       H  0.65232267  0.87388352  0.99024701     0.16400
H2857       H  0.58548230  0.90746564  0.59222724     0.16200
C2858       C  0.89330672  0.89001721  0.88079740     0.88000
C2859       C  0.87071026  0.86434624  0.89940950    -0.52300
C2860       C  0.85285608  0.84108743  0.87615654     0.10900
C2861       C  0.85942327  0.84613326  0.83786298     0.21900
C2862       C  0.91644915  0.86702661  0.85399709    -0.53000
C2863       C  0.89850797  0.84387233  0.83216234     0.11000
C2864       C  0.86738432  0.90657330  0.85730050    -0.52500
C2865       C  0.84944290  0.88324424  0.83528477     0.11600
H2866       H  0.86841897  0.86521683  0.92793894     0.16100
H2867       H  0.84575781  0.82841103  0.81833968     0.01800
H2868       H  0.94438841  0.86945731  0.85156601     0.16400
H2869       H  0.86386414  0.93393476  0.85765080     0.16200
C2870       C  0.78266823  0.74950825  0.55853541     0.31500
C2871       C  0.72187344  0.78568337  0.55741591     0.31500
C2872       C  0.78579553  0.78738126  0.55701544    -0.04700
C2873       C  0.75935128  0.73874530  0.52703729    -0.05500
C2874       C  0.75828933  0.74747305  0.59039960    -0.05400
C2875       C  0.75509143  0.80584500  0.55662522    -0.04700
C2876       C  0.72686506  0.75670405  0.52754999    -0.05500
C2877       C  0.72633358  0.76626261  0.58961637    -0.05400
C2878       C  0.76345372  0.83936825  0.55634760    -0.30700
N2879       N  0.79839709  0.84114487  0.55587762     0.15800
C2880       C  0.81237370  0.80955924  0.55636933    -0.30800
H2881       H  0.83973558  0.80354830  0.55830094     0.17700
C2882       C  0.76672069  0.78970353  0.00058320    -0.29700
N2883       N  0.79271440  0.76906482  0.98709942     0.14500
C2884       C  0.81393631  0.76167976  0.01238570    -0.29700
C2885       C  0.70102961  0.74494631  0.59940051    -0.30000
N2886       N  0.71543612  0.71491620  0.60499642     0.15000
H2887       H  0.67380207  0.74800465  0.59385772     0.17600
C2888       C  0.75003026  0.71670956  0.60176576    -0.30000
H2889       H  0.76696100  0.69441776  0.59908843     0.17600
H2890       H  0.83351912  0.74182207  0.00811379     0.17600
H2891       H  0.74584212  0.86096536  0.55741351     0.17700
H2892       H  0.74325495  0.79361291  0.98611993     0.17600
C2893       C  0.78307883  0.76728528  0.86973608     0.31500
C2894       C  0.72616716  0.73135571  0.88600078     0.31500
C2895       C  0.77227255  0.73937086  0.84033166    -0.04700
C2896       C  0.78783993  0.74563792  0.89981621    -0.05500
C2897       C  0.74988670  0.78788392  0.87916315    -0.05400
C2898       C  0.74234553  0.72052736  0.84892279    -0.04700
C2899       C  0.75784407  0.72831100  0.90992964    -0.05500
C2900       C  0.72112522  0.76980825  0.88743325    -0.05400
C2901       C  0.75015698  0.68663092  0.83782089    -0.30700
N2902       N  0.78305308  0.68372853  0.82574797     0.15800
C2903       C  0.79599522  0.71520648  0.82521230    -0.30800
H2904       H  0.82352581  0.71982528  0.82257298     0.17700
C2905       C  0.75948017  0.73158348  0.94604886    -0.29700
N2906       N  0.78963199  0.74707951  0.95621287     0.14500
C2907       C  0.80819870  0.75315566  0.92821556    -0.29700
C2908       C  0.69405833  0.79279300  0.89406065    -0.30000
N2909       N  0.70576595  0.82425571  0.88943467     0.15000
H2910       H  0.66740799  0.78686636  0.89993022     0.17600
C2911       C  0.74002869  0.82153887  0.88058717    -0.30000
H2912       H  0.75635490  0.84221339  0.87447667     0.17600
H2913       H  0.83035845  0.76979573  0.92990623     0.17600
H2914       H  0.73633925  0.66550682  0.84680515     0.17700
H2915       H  0.73749001  0.72965166  0.96359124     0.17600
C2916       C  0.59682326  0.93498745  0.52801644     0.44000
N2917       N  0.55031062  0.95370958  0.50498482     0.02800
C2918       C  0.54198637  0.60659180  0.93347052    -0.05000
H2919       H  0.52571894  0.62326926  0.55403856     0.08300
C2920       C  0.91047496  0.56787951  0.52537535    -0.05400
Co2921     Co  0.56357113  0.51543525  0.97415895     0.74200
N2922       N  0.53614221  0.57663529  0.51909795    -0.24600
Co2923     Co  0.49316231  0.57148439  0.98007345     0.74100
C2924       C  0.91981841  0.60341675  0.53682803     0.44100
N2925       N  0.94803496  0.97843763  0.51039003     0.02500
N2926       N  0.96208929  0.57759125  0.50657382     0.02600
N2927       N  0.58942558  0.57348589  0.93457303    -0.45400
H2928       H  0.62468295  0.98528303  0.51937074     0.08300
N2929       N  0.56233745  0.55425814  0.51880427     0.02800
N2930       N  0.96117478  0.56215306  0.93026191     0.02600
C2931       C  0.92368062  0.56767582  0.88660512     0.44200
N2932       N  0.97279757  0.95458311  0.50876438    -0.24000
C2933       C  0.58958727  0.98110180  0.89752107    -0.04900
N2934       N  0.56405462  0.92668735  0.51799233    -0.45100
N2935       N  0.95254679  0.58131661  0.90447748    -0.45300
C2936       C  0.58197541  0.94913684  0.87553223     0.44000
N2937       N  0.56153517  0.55738477  0.94472148     0.02800
N2938       N  0.96133140  0.94015001  0.93192480    -0.24000
N2939       N  0.57193645  0.97931892  0.50572786    -0.24500
N2940       N  0.93471667  0.96167890  0.93526998     0.02500
H2941       H  0.96679877  0.88759362  0.91021660     0.08400
H2942       H  0.89289229  0.52161373  0.90104482     0.08400
N2943       N  0.53351321  0.57672647  0.94506551    -0.24600
N2944       N  0.93803349  0.55400822  0.50648510    -0.24200
N2945       N  0.54796020  0.95536090  0.92247237     0.02800
C2946       C  0.57311496  0.58973717  0.56578834     0.44200
C2947       C  0.97060823  0.94018715  0.53914627    -0.05400
N2948       N  0.93876457  0.53684476  0.93117213    -0.24200
H2949       H  0.88546564  0.55595065  0.52705523     0.08400
N2950       N  0.58455723  0.56150100  0.54510992    -0.45400
H2951       H  0.98648476  0.91891850  0.54517848     0.08400
C2952       C  0.91525885  0.91564346  0.90463518     0.44100
C2953       C  0.60150654  0.97029627  0.52006450    -0.04900
Co2954     Co  0.00242502  0.94343883  0.96665926     0.73800
N2955       N  0.92903935  0.98040275  0.54000759    -0.45100
C2956       C  0.57953855  0.60518131  0.92748388     0.44300
N2957       N  0.55636339  0.93425625  0.89345222    -0.45100
Co2958     Co  0.94096933  0.50372594  0.97155459     0.73900
C2959       C  0.91489335  0.53834475  0.90535718    -0.05500
C2960       C  0.54123583  0.60033009  0.54758604    -0.05000
N2961       N  0.56788454  0.98282712  0.92543320    -0.24500
N2962       N  0.95212503  0.60728041  0.52404395    -0.45300
H2963       H  0.52521523  0.62889504  0.93538448     0.08300
C2964       C  0.95172121  0.91105066  0.91291530    -0.05400
Cl2965     Cl  0.49978496  0.50916553  0.97678724    -0.48400
C2966       C  0.94147164  0.95735739  0.56071382     0.44100
H2967       H  0.61064656  0.99850747  0.89467852     0.08300
N2968       N  0.90658031  0.94802600  0.91897194    -0.45100
C2969       C  0.82601967  0.81613200  0.88569373    -0.14900
C2970       C  0.81412934  0.78961088  0.86236906    -0.30100
H2971       H  0.81401151  0.82119137  0.91173679     0.14100
H2972       H  0.82613467  0.78375651  0.83658018     0.14700
C2973       C  0.68154269  0.82947395  0.53239511    -0.14900
C2974       C  0.68883648  0.80795357  0.55698973    -0.30100
H2975       H  0.69664876  0.82806171  0.50807983     0.14100
H2976       H  0.67255048  0.80976490  0.58047929     0.14700
C2977       C  0.80095058  0.86881700  0.79598306    -0.14900
C2978       C  0.82493136  0.89162796  0.80831801    -0.30100
H2979       H  0.79375286  0.84783986  0.81045548     0.14100
H2980       H  0.82904275  0.91448877  0.79562854     0.14700
C2981       C  0.70460306  0.96154511  0.60985652    -0.14900
C2982       C  0.71083828  0.93580995  0.58416327    -0.30100
H2983       H  0.67951556  0.97462677  0.61095069     0.14100
H2984       H  0.73435485  0.92047809  0.58458638     0.14700
C2985       C  0.80394039  0.65378139  0.82731161    -0.14900
C2986       C  0.82963611  0.65265165  0.85127414    -0.30100
H2987       H  0.79883793  0.63186510  0.80809867     0.14100
H2988       H  0.83263539  0.67336690  0.87251495     0.14700
C2989       C  0.85034699  0.87194089  0.55189925    -0.14900
C2990       C  0.81736434  0.87169905  0.56226469    -0.30100
H2991       H  0.86106042  0.85223607  0.53227428     0.14100
H2992       H  0.80648072  0.89261212  0.58045923     0.14700
C2993       C  0.83800461  0.94477429  0.65230819    -0.14900
C2994       C  0.82381387  0.92188331  0.67304400    -0.30100
H2995       H  0.82674542  0.97012707  0.65309652     0.14100
H2996       H  0.83583817  0.89709628  0.67262629     0.14700
C2997       C  0.89788590  0.79218265  0.79032111    -0.14900
C2998       C  0.91362262  0.82163142  0.80185436    -0.30100
H2999       H  0.88006357  0.78108294  0.80784709     0.14100
H3000       H  0.93356814  0.83193627  0.78596841     0.14700
C3001       C  0.91778937  0.64537697  0.78756094    -0.14900
C3002       C  0.90301848  0.65050549  0.75653715    -0.30100
H3003       H  0.93119881  0.66600344  0.80307990     0.14100
H3004       H  0.89219389  0.62864069  0.74046280     0.14700
C3005       C  0.92182358  0.86768436  0.64605074    -0.14900
C3006       C  0.90313834  0.86761775  0.67628947    -0.30100
H3007       H  0.93591657  0.84495098  0.63474578     0.14100
H3008       H  0.89165416  0.89135710  0.68870168     0.14700
C3009       C  0.68487064  0.68643376  0.91050878    -0.14900
C3010       C  0.69193189  0.71239432  0.89089363    -0.30100
H3011       H  0.70330624  0.67939711  0.92981774     0.14100
H3012       H  0.67184663  0.71919826  0.87308576     0.14700
C3013       C  0.81749469  0.73092747  0.56180282    -0.14900
C3014       C  0.82865030  0.70129465  0.54275146    -0.30100
H3015       H  0.83318493  0.74205918  0.58362575     0.14100
H3016       H  0.81408609  0.68997258  0.52022004     0.14700
C3017       C  0.91709235  0.70227199  0.63310911    -0.14900
C3018       C  0.90073131  0.73109442  0.64660096    -0.30100
H3019       H  0.93681097  0.69070338  0.64816942     0.14100
H3020       H  0.88278306  0.74288851  0.62974571     0.14700
C3021       C  0.82087029  0.57274014  0.75172065    -0.14900
C3022       C  0.82758354  0.56098124  0.78379334    -0.30100
H3023       H  0.84369684  0.58089005  0.73832708     0.14100
H3024       H  0.80737591  0.54838635  0.79710231     0.14700
C3025       C  0.65655470  0.60078796  0.82517134    -0.14900
C3026       C  0.69091911  0.60172927  0.82403137    -0.30100
H3027       H  0.64160565  0.58785794  0.80359355     0.14100
H3028       H  0.70560581  0.61252562  0.84689920     0.14700
C3029       C  0.82993880  0.63852337  0.63183983    -0.14900
C3030       C  0.82177934  0.66286252  0.65858658    -0.30100
H3031       H  0.81955644  0.61305481  0.63204249     0.14100
H3032       H  0.83320796  0.68790578  0.66133067     0.14700
C3033       C  0.69121615  0.87714783  0.86680251    -0.14900
C3034       C  0.68353128  0.85350020  0.88806745    -0.30100
H3035       H  0.71569583  0.87565858  0.85237717     0.14100
H3036       H  0.65748954  0.85303628  0.89926933     0.14700
C3037       C  0.68128083  0.94696428  0.78138031    -0.14900
C3038       C  0.69163720  0.92927259  0.74999320    -0.30100
H3039       H  0.69554385  0.96924574  0.79233766     0.14100
H3040       H  0.67582284  0.90773597  0.73972873     0.14700
C3041       C  0.60673254  0.69430420  0.80760038    -0.14900
C3042       C  0.59223283  0.69620964  0.84028962    -0.30100
H3043       H  0.62215651  0.67173463  0.79819661     0.14100
H3044       H  0.57376617  0.71636428  0.84950304     0.14700
C3045       C  0.62966254  0.86923999  0.63121055    -0.14900
C3046       C  0.65290140  0.84786749  0.64379459    -0.30100
H3047       H  0.60365621  0.87129518  0.64265587     0.14100
H3048       H  0.67871224  0.84417628  0.63270516     0.14700
C3049       C  0.59100339  0.83332064  0.77115603    -0.14900
C3050       C  0.61881360  0.84514177  0.78939423    -0.30100
H3051       H  0.56733908  0.84861353  0.77209549     0.14100
H3052       H  0.64269821  0.83007608  0.78636969     0.14700
C3053       C  0.66876977  0.67774482  0.58366109    -0.14900
C3054       C  0.69733672  0.68356274  0.60341870    -0.30100
H3055       H  0.66169268  0.69391904  0.56367111     0.14100
H3056       H  0.70603864  0.66506273  0.62042264     0.14700
C3057       C  0.67909712  0.60037708  0.64973130    -0.14900
C3058       C  0.69272227  0.61321709  0.68183049    -0.30100
H3059       H  0.69429597  0.58346195  0.63104866     0.14100
H3060       H  0.67766789  0.63284535  0.69787132     0.14700
C3061       C  0.60943976  0.71721902  0.66603845    -0.14900
C3062       C  0.59000694  0.68857187  0.66451484    -0.30100
H3063       H  0.63116138  0.71797227  0.64779020     0.14100
H3064       H  0.56763130  0.68736666  0.68179716     0.14700
loop_ 
_geom_bond_atom_site_label_1 
_geom_bond_atom_site_label_2 
_geom_bond_distance 
_geom_bond_site_symmetry_2 
_ccdc_geom_bond_type 
C1            C2   1.579       .  S
C1            C7   1.550       .  S
C1            C5   1.547       .  S
C1          C265   1.568       .  S
C2            H9   1.085       .  S
C2            C3   1.393       .  D
C3            C4   1.527       .  S
C3          C376   1.530       .  S
C4            C8   1.529       .  S
C4            C6   1.519       .  S
C4           H10   1.105       .  S
C5           H11   1.086       .  S
C5            C6   1.365       .  D
C6          C381   1.470       .  S
C7           H12   1.086       .  S
C7            C8   1.374       .  D
C8          C372   1.490       .  S
C13         C380   1.515       .  S
C13          C15   1.548       .  S
C13          C17   1.539       .  S
C13          C16   1.515       .  S
C14         C368   1.525       .  S
C14          C18   1.523       .  S
C14          C20   1.548       .  S
C14          C19   1.539       .  S
C15          C23   1.400       .  A
C15          C18   1.383       .  A
C16          C27   1.348       .  A
C16          C19   1.405       .  A
C17          C31   1.391       .  A
C17          C20   1.423       .  A
C18          C21   1.370       .  A
C19          C25   1.378       .  A
C20          C28   1.383       .  A
C21          N22   1.351       .  A
C21          H34   1.082       .  S
N22          C23   1.366       .  A
N22         C365   1.446       .  S
C23          H24   1.081       .  S
C25        N1558   1.355       .  A
C25        H1567   1.080       .  S
N26        C1557   1.355       .  A
N26        C1559   1.356       .  A
N26        N1640   1.394       .  S
C27        N1558   1.341       .  A
C27        H1565   1.080       .  S
C28          N29   1.349       .  A
C28          H30   1.083       .  S
N29          C31   1.345       .  A
N29         C360   1.436       .  S
C31          H32   1.078       .  S
H33        C1559   1.082       .  S
H35        C1557   1.082       .  S
C36          C37   1.581       .  S
C36          C42   1.526       .  S
C36          C40   1.542       .  S
C36         C255   1.543       .  S
C37          H44   1.085       .  S
C37          C38   1.395       .  D
C38          C39   1.540       .  S
C38         C356   1.540       .  S
C39          C43   1.520       .  S
C39          C41   1.537       .  S
C39          H45   1.102       .  S
C40          H46   1.086       .  S
C40          C41   1.370       .  D
C41         C369   1.490       .  S
C42          H47   1.087       .  S
C42          C43   1.350       .  D
C43         C352   1.440       .  S
C48         C377   1.558       .  S
C48          C50   1.534       .  S
C48          C52   1.532       .  S
C48          C51   1.533       .  S
C49         C340   1.562       .  S
C49          C53   1.512       .  S
C49          C55   1.531       .  S
C49          C54   1.533       .  S
C50          C58   1.380       .  A
C50          C53   1.408       .  A
C51          C62   1.374       .  A
C51          C54   1.439       .  A
C52          C66   1.377       .  A
C52          C55   1.423       .  A
C53          C56   1.359       .  A
C54          C60   1.356       .  A
C55          C63   1.373       .  A
C56          N57   1.342       .  A
C56          H69   1.080       .  S
N57          C58   1.353       .  A
N57         C345   1.422       .  S
C58          H59   1.082       .  S
C60         N827   1.333       .  A
C60         H836   1.080       .  S
N61         C826   1.329       .  A
N61         C828   1.344       .  A
N61         N921   1.386       .  S
C62         N827   1.342       .  A
C62         H834   1.083       .  S
C63          N64   1.344       .  A
C63          H65   1.084       .  S
N64          C66   1.340       .  A
N64         C349   1.418       .  S
C66          H67   1.084       .  S
H68         C828   1.083       .  S
H70         C826   1.079       .  S
C71          C72   1.576       .  S
C71          C77   1.538       .  S
C71          C75   1.543       .  S
C71         C243   1.531       .  S
C72          H79   1.085       .  S
C72          C73   1.390       .  D
C73          C74   1.532       .  S
C73         C333   1.531       .  S
C74          C78   1.525       .  S
C74          C76   1.530       .  S
C74          H80   1.094       .  S
C75          H81   1.086       .  S
C75          C76   1.354       .  D
C76         C336   1.483       .  S
C77          H82   1.086       .  S
C77          C78   1.361       .  D
C78         C348   1.465       .  S
C83          C84   1.544       .  S
C83          C89   1.579       .  S
C83          C87   1.528       .  S
C83         C275   1.539       .  S
C84          H91   1.086       .  S
C84          C85   1.369       .  D
C85          C86   1.536       .  S
C85         C361   1.497       .  S
C86          C90   1.540       .  S
C86          C88   1.527       .  S
C86          H92   1.104       .  S
C87          H93   1.086       .  S
C87          C88   1.325       .  D
C88         C344   1.452       .  S
C89          H94   1.085       .  S
C89          C90   1.401       .  D
C90         C328   1.528       .  S
C95         C316   1.532       .  S
C95          C97   1.551       .  S
C95          C99   1.541       .  S
C95          C98   1.522       .  S
C96         C337   1.511       .  S
C96         C100   1.535       .  S
C96         C102   1.524       .  S
C96         C101   1.537       .  S
C97         C105   1.409       .  A
C97         C100   1.410       .  A
C98         C101   1.420       .  A
C98        C1641   1.354       .  A
C99         C113   1.396       .  A
C99         C102   1.406       .  A
C100        C103   1.380       .  A
C101       C1639   1.373       .  A
C102        C110   1.387       .  A
C103        N104   1.339       .  A
C103        H116   1.084       .  S
N104        C105   1.354       .  A
N104        C325   1.444       .  S
C105        H106   1.080       .  S
C107       C1633   1.350       .  A
C107        N108   1.359       .  A
C107        H117   1.079       .  S
N108        C109   1.351       .  A
N108       N1558   1.395   1_655  S
C109       C1630   1.361       .  A
C109        H115   1.082       .  S
C110        N111   1.345       .  A
C110        H112   1.081       .  S
N111        C113   1.352       .  A
N111        C321   1.445       .  S
C113        H114   1.082       .  S
C118        C119   1.523       .  S
C118        C124   1.548       .  S
C118        C122   1.588       .  S
C118        C285   1.544       .  S
C119        H126   1.088       .  S
C119        C120   1.343       .  D
C120        C121   1.531       .  S
C120        C308   1.460       .  S
C121        C125   1.523       .  S
C121        C123   1.527       .  S
C121        H127   1.107       .  S
C122        H128   1.085       .  S
C122        C123   1.402       .  D
C123        C312   1.529       .  S
C124        H129   1.086       .  S
C124        C125   1.369       .  D
C125        C324   1.486       .  S
C130        C131   1.545       .  S
C130        C136   1.543       .  S
C130        C134   1.583       .  S
C130        C250   1.555       .  S
C131        H138   1.086       .  S
C131        C132   1.371       .  D
C132        C133   1.523       .  S
C132        C305   1.473       .  S
C133        C137   1.523       .  S
C133        C135   1.516       .  S
C133        H139   1.087       .  S
C134        H140   1.085       .  S
C134        C135   1.394       .  D
C135        C341   1.536       .  S
C136        H141   1.086       .  S
C136        C137   1.363       .  D
C137        C320   1.481       .  S
C142        C357   1.569       .  S
C142        C144   1.519       .  S
C142        C146   1.540       .  S
C142        C145   1.544       .  S
C143        C313   1.563       .  S
C143        C147   1.542       .  S
C143        C149   1.532       .  S
C143        C148   1.526       .  S
C144        C152   1.362       .  A
C144        C147   1.421       .  A
C145        C148   1.431       .  A
C145        C922   1.386       .  A
C146        C160   1.382       .  A
C146        C149   1.419       .  A
C147        C150   1.383       .  A
C148        C920   1.348       .  A
C149        C157   1.378       .  A
C150        N151   1.351       .  A
C150        H163   1.082       .  S
N151        C152   1.345       .  A
N151        C300   1.430       .  S
C152        H153   1.078       .  S
C154        C914   1.349       .  A
C154        N155   1.327       .  A
C154        H164   1.079       .  S
N155        C156   1.350       .  A
N155        N827   1.383   1_565  S
C156        C911   1.379       .  A
C156        H162   1.082       .  S
C157        N158   1.340       .  A
C157        H159   1.078       .  S
N158        C160   1.342       .  A
N158        C296   1.422       .  S
C160        H161   1.083       .  S
C165        C166   1.521       .  S
C165        C171   1.560       .  S
C165        C169   1.562       .  S
C165        C235   1.530       .  S
C166        H173   1.087       .  S
C166        C167   1.343       .  D
C167        C168   1.536       .  S
C167        C301   1.454       .  S
C168        C172   1.529       .  S
C168        C170   1.528       .  S
C168        H174   1.108       .  S
C169        H558   1.085       .  S
C169        C170   1.385       .  D
C170        C292   1.509       .  S
C171        H176   1.085       .  S
C171        C172   1.377       .  D
C172        C364   1.493       .  S
H175        C552   1.085       .  S
C177        C178   1.560       .  S
C177        C183   1.547       .  S
C177        C181   1.552       .  S
C177        C271   1.542       .  S
C178        H185   1.085       .  S
C178        C179   1.378       .  D
C179        C180   1.525       .  S
C179        C288   1.504       .  S
C180        C184   1.526       .  S
C180        C182   1.530       .  S
C180        H186   1.104       .  S
C181        H187   1.085       .  S
C181        C182   1.365       .  D
C182        C317   1.494       .  S
C183        H188   1.086       .  S
C183        C184   1.371       .  D
C184        C297   1.475       .  S
C189        C332   1.548       .  S
C189        C191   1.512       .  S
C189        C193   1.533       .  S
C189        C192   1.537       .  S
C190        C293   1.549       .  S
C190        C194   1.540       .  S
C190        C196   1.544       .  S
C190        C195   1.525       .  S
C191        C199   1.366       .  A
C191        C194   1.404       .  A
C192        C195   1.421       .  A
C192        C586   1.370       .  A
C193        C207   1.377       .  A
C193        C196   1.429       .  A
C194        C197   1.387       .  A
C195        C584   1.353       .  A
C196        C204   1.390       .  A
C197        N198   1.352       .  A
C197        H210   1.081       .  S
N198        C199   1.345       .  A
N198        C309   1.432       .  S
C199        H200   1.081       .  S
C201        C578   1.377       .  A
C201        N202   1.346       .  A
C201        H211   1.082       .  S
N202        C203   1.319       .  A
N202        N225   1.375       .  S
C203        C575   1.356       .  A
C203        H209   1.079       .  S
C204        N205   1.348       .  A
C204        H206   1.082       .  S
N205        C207   1.338       .  A
N205        C373   1.428       .  S
C207        H208   1.079       .  S
C212        C289   1.537       .  S
C212        C214   1.524       .  S
C212        C216   1.517       .  S
C212        C215   1.526       .  S
C213        C329   1.540       .  S
C213        C217   1.541       .  S
C213        C219   1.527       .  S
C213        C218   1.527       .  S
C214        C222   1.371       .  A
C214        C217   1.416       .  A
C215        C226   1.372       .  A
C215        C218   1.438       .  A
C216        C230   1.354       .  A
C216        C219   1.392       .  A
C217        C220   1.379       .  A
C218        C224   1.360       .  A
C219        C227   1.371       .  A
C220        N221   1.346       .  A
C220        H233   1.083       .  S
N221        C222   1.338       .  A
N221        C304   1.415       .  S
C222        H223   1.081       .  S
C224        N225   1.329       .  A
C224        H234   1.080       .  S
N225        C226   1.334       .  A
C226        H232   1.082       .  S
C227        N228   1.357       .  A
C227        H229   1.082       .  S
N228        C230   1.356       .  A
N228        C353   1.425       .  S
C230        H231   1.082       .  S
C235        N253   1.347       .  A
C235        C272   1.482       .  S
N236        N253   1.329   1_556  A
N236        N258   1.313   1_556  A
N236      Co2188   2.051       .  S
C237        N262   1.361       .  A
C237        H282   1.081       .  S
C237        C275   1.471       .  S
H238        C279   1.082       .  S
C239        N263   1.355       .  A
C239        H268   1.081       .  S
C239        C243   1.477       .  S
Co240       N256   2.080       .  S
Co240      N1407   2.097   1_545  S
Co240       N631   2.106       .  S
Co240      N1046   2.113   1_545  S
Co240      Cl284   2.460       .  S
N241        C279   1.360       .  A
N241        N248   1.329       .  A
N241       Co625   2.198   1_554  S
Co242       N262   2.086       .  S
Co242       N624   2.202       .  S
Co242      N2160   2.081   1_455  S
Co242      N1781   2.216   1_455  S
Co242      Cl284   2.483       .  S
C243        N281   1.347       .  A
N244        N251   1.331       .  A
N244        N274   1.332       .  A
N244      Co1426   2.099   1_554  S
N245        N263   1.319       .  A
N245        N281   1.324       .  A
N245      Co2157   2.060   1_554  S
N246        C275   1.350       .  A
N246        N256   1.314       .  A
H247        C272   1.082       .  S
N248        N269   1.336       .  A
N248       Co623   2.115   1_554  S
N249        N267   1.332       .  A
N249        N254   1.337       .  A
N249      Co1774   2.191       .  S
C250        N254   1.370       .  A
C250        C278   1.467       .  S
N251        C266   1.353       .  A
N251       Co656   2.199   1_554  S
C252        N280   1.344       .  A
C252        H286   1.082       .  S
C252        C255   1.464       .  S
C255        N276   1.377       .  A
N256        N262   1.317       .  A
N257        C283   1.343       .  A
N257        N259   1.316       .  A
N257       Co273   2.067       .  S
N258        C272   1.351       .  A
N258      Co1389   2.124   1_554  S
N259        N287   1.338       .  A
N259      Co1043   2.130       .  S
H260        C283   1.082       .  S
H261        C278   1.081       .  S
N263       Co660   2.119   1_554  S
N264        N276   1.338       .  A
N264        N280   1.324       .  A
N264      Co1805   2.192       .  S
C265        N269   1.356       .  A
C265        C279   1.496       .  S
C266        H270   1.082       .  S
C266        C285   1.495       .  S
N267        C278   1.352       .  A
N267       Co277   2.121       .  S
C271        N287   1.362       .  A
C271        C283   1.461       .  S
Co273      N2151   2.025       .  S
Co273       N634   2.161       .  S
Co273      N1796   2.179       .  S
Co273     Cl2582   2.433       .  S
N274        C285   1.355       .  A
Co277      N1393   2.108   1_545  S
Co277      N1025   2.130   1_545  S
Co277       N646   2.125       .  S
Co277     Cl1816   2.493       .  S
N280      Co1006   2.088       .  S
Cl284     Co2571   2.468   1_545  S
Cl284     Co1809   2.476   1_455  S
C288        H290   1.083       .  S
C288        C289   1.364       .  D
C289        H291   1.087       .  S
C292        H294   1.084       .  S
C292        C293   1.373       .  D
C293        H295   1.082       .  S
C296        H298   1.080       .  S
C296        C297   1.346       .  D
C297        H299   1.086       .  S
C300        H302   1.088       .  S
C300        C301   1.340       .  D
C301        H303   1.082       .  S
C304        H306   1.076       .  S
C304        C305   1.347       .  D
C305        H307   1.087       .  S
C308        H310   1.082       .  S
C308        C309   1.343       .  D
C309        H311   1.088       .  S
C312        H314   1.083       .  S
C312        C313   1.382       .  D
C313        H315   1.077       .  S
C316        H318   1.087       .  S
C316        C317   1.348       .  D
C317        H319   1.082       .  S
C320        H322   1.085       .  S
C320        C321   1.346       .  D
C321        H323   1.088       .  S
C324        H326   1.086       .  S
C324        C325   1.333       .  D
C325        H327   1.089       .  S
C328        H330   1.087       .  S
C328        C329   1.372       .  D
C329        H331   1.074       .  S
C332        H334   1.079       .  S
C332        C333   1.369       .  D
C333        H335   1.084       .  S
C336        H338   1.086       .  S
C336        C337   1.339       .  D
C337        H339   1.083       .  S
C340        H342   1.075       .  S
C340        C341   1.389       .  D
C341        H343   1.082       .  S
C344        H346   1.085       .  S
C344        C345   1.338       .  D
C345        H347   1.089       .  S
C348        H350   1.087       .  S
C348        C349   1.344       .  D
C349        H351   1.079       .  S
C352        H354   1.084       .  S
C352        C353   1.334       .  D
C353        H355   1.088       .  S
C356        H358   1.084       .  S
C356        C357   1.377       .  D
C357        H359   1.077       .  S
C360        H362   1.068       .  S
C360        C361   1.352       .  D
C361        H363   1.085       .  S
C364        H366   1.085       .  S
C364        C365   1.346       .  D
C365        H367   1.089       .  S
C368        H370   1.085       .  S
C368        C369   1.354       .  D
C369        H371   1.084       .  S
C372        H374   1.086       .  S
C372        C373   1.354       .  D
C373        H375   1.074       .  S
C376        H378   1.084       .  S
C376        C377   1.376       .  D
C377        H379   1.083       .  S
C380        H382   1.087       .  S
C380        C381   1.347       .  D
C381        H383   1.085       .  S
C384        C385   1.577       .  S
C384        C390   1.543       .  S
C384        C388   1.546       .  S
C384        C648   1.557       .  S
C385        H392   1.085       .  S
C385        C386   1.391       .  D
C386        C387   1.526       .  S
C386        C759   1.528       .  S
C387        C391   1.536       .  S
C387        C389   1.524       .  S
C387        H393   1.103       .  S
C388        H394   1.086       .  S
C388        C389   1.366       .  D
C389        C764   1.472       .  S
C390        H395   1.086       .  S
C390        C391   1.369       .  D
C391        C755   1.491       .  S
C396        C763   1.509       .  S
C396        C398   1.540       .  S
C396        C400   1.536       .  S
C396        C399   1.513       .  S
C397        C751   1.516       .  S
C397        C401   1.532       .  S
C397        C403   1.551       .  S
C397        C402   1.531       .  S
C398        C406   1.383       .  A
C398        C401   1.389       .  A
C399        C410   1.350       .  A
C399        C402   1.407       .  A
C400        C414   1.395       .  A
C400        C403   1.418       .  A
C401        C404   1.391       .  A
C402        C408   1.371       .  A
C403        C411   1.383       .  A
C404        N405   1.358       .  A
C404        H417   1.082       .  S
N405        C406   1.353       .  A
N405        C748   1.445       .  S
C406        H407   1.082       .  S
C408       N1941   1.350       .  A
C408       H1950   1.080       .  S
N409       C1940   1.351       .  A
N409       C1942   1.350       .  A
N409       N2023   1.401       .  S
C410       N1941   1.343       .  A
C410       H1948   1.080       .  S
C411        N412   1.347       .  A
C411        H413   1.082       .  S
N412        C414   1.351       .  A
N412        C743   1.443       .  S
C414        H415   1.080       .  S
H416       C1942   1.079       .  S
H418       C1940   1.079       .  S
C419        C420   1.590       .  S
C419        C425   1.549       .  S
C419        C423   1.546       .  S
C419        C638   1.582       .  S
C420        H427   1.085       .  S
C420        C421   1.400       .  D
C421        C422   1.530       .  S
C421        C739   1.549       .  S
C422        C426   1.526       .  S
C422        C424   1.529       .  S
C422        H428   1.098       .  S
C423        H429   1.086       .  S
C423        C424   1.367       .  D
C424        C752   1.488       .  S
C425        H430   1.086       .  S
C425        C426   1.373       .  D
C426        C735   1.486       .  S
C431        C760   1.556       .  S
C431        C433   1.531       .  S
C431        C435   1.534       .  S
C431        C434   1.537       .  S
C432        C723   1.563       .  S
C432        C436   1.511       .  S
C432        C438   1.529       .  S
C432        C437   1.537       .  S
C433        C441   1.376       .  A
C433        C436   1.398       .  A
C434        C445   1.377       .  A
C434        C437   1.444       .  A
C435        C449   1.380       .  A
C435        C438   1.422       .  A
C436        C439   1.360       .  A
C437        C443   1.355       .  A
C438        C446   1.368       .  A
C439        N440   1.346       .  A
C439        H452   1.081       .  S
N440        C441   1.356       .  A
N440        C728   1.421       .  S
C441        H442   1.083       .  S
C443       N1210   1.332       .  A
C443       H1219   1.079       .  S
N444       C1209   1.332       .  A
N444       C1211   1.345       .  A
N444       N1304   1.386       .  S
C445       N1210   1.342       .  A
C445       H1217   1.083       .  S
C446        N447   1.341       .  A
C446        H448   1.079       .  S
N447        C449   1.343       .  A
N447        C732   1.419       .  S
C449        H450   1.084       .  S
H451       C1211   1.083       .  S
H453       C1209   1.079       .  S
C454        C455   1.565       .  S
C454        C460   1.549       .  S
C454        C458   1.542       .  S
C454        C626   1.539       .  S
C455        H462   1.085       .  S
C455        C456   1.386       .  D
C456        C457   1.515       .  S
C456        C716   1.508       .  S
C457        C461   1.523       .  S
C457        C459   1.527       .  S
C457        H463   1.102       .  S
C458        H464   1.086       .  S
C458        C459   1.359       .  D
C459        C719   1.482       .  S
C460        H465   1.085       .  S
C460        C461   1.370       .  D
C461        C731   1.468       .  S
C466        C467   1.551       .  S
C466        C472   1.567       .  S
C466        C470   1.525       .  S
C466        C658   1.529       .  S
C467        H474   1.085       .  S
C467        C468   1.373       .  D
C468        C469   1.531       .  S
C468        C744   1.485       .  S
C469        C473   1.527       .  S
C469        C471   1.527       .  S
C469        H475   1.111       .  S
C470        H476   1.086       .  S
C470        C471   1.334       .  D
C471        C727   1.443       .  S
C472        H477   1.085       .  S
C472        C473   1.389       .  D
C473        C711   1.503       .  S
C478        C699   1.512       .  S
C478        C480   1.551       .  S
C478        C482   1.544       .  S
C478        C481   1.535       .  S
C479        C720   1.510       .  S
C479        C483   1.525       .  S
C479        C485   1.541       .  S
C479        C484   1.528       .  S
C480        C488   1.405       .  A
C480        C483   1.375       .  A
C481       C2024   1.354       .  A
C481        C484   1.405       .  A
C482        C496   1.391       .  A
C482        C485   1.420       .  A
C483        C486   1.373       .  A
C484       C2022   1.369       .  A
C485        C493   1.385       .  A
C486        N487   1.354       .  A
C486        H499   1.082       .  S
N487        C488   1.369       .  A
N487        C708   1.452       .  S
C488        H489   1.082       .  S
C490       C2016   1.355       .  A
C490        N491   1.345       .  A
C490        H500   1.080       .  S
N491        C492   1.343       .  A
N491       N1941   1.392   1_655  S
C492       C2013   1.372       .  A
C492        H498   1.081       .  S
C493        N494   1.344       .  A
C493        H495   1.080       .  S
N494        C496   1.344       .  A
N494        C704   1.435       .  S
C496        H497   1.076       .  S
C501        C502   1.526       .  S
C501        C507   1.571       .  S
C501        C505   1.569       .  S
C501        C668   1.550       .  S
C502        H509   1.087       .  S
C502        C503   1.346       .  D
C503        C504   1.528       .  S
C503        C691   1.456       .  S
C504        C508   1.526       .  S
C504        C506   1.521       .  S
C504        H510   1.106       .  S
C505        H511   1.085       .  S
C505        C506   1.389       .  D
C506        C695   1.508       .  S
C507        H512   1.085       .  S
C507        C508   1.384       .  D
C508        C707   1.510       .  S
C513        C514   1.527       .  S
C513        C519   1.550       .  S
C513        C517   1.578       .  S
C513        C633   1.545       .  S
C514        H521   1.087       .  S
C514        C515   1.347       .  D
C515        C516   1.527       .  S
C515        C688   1.453       .  S
C516        C520   1.532       .  S
C516        C518   1.522       .  S
C516        H522   1.107       .  S
C517        H523   1.085       .  S
C517        C518   1.391       .  D
C518        C724   1.518       .  S
C519        H524   1.086       .  S
C519        C520   1.378       .  D
C520        C703   1.488       .  S
C525        C740   1.568       .  S
C525        C527   1.523       .  S
C525        C529   1.534       .  S
C525        C528   1.542       .  S
C526        C696   1.553       .  S
C526        C530   1.528       .  S
C526        C532   1.525       .  S
C526        C531   1.531       .  S
C527        C535   1.361       .  A
C527        C530   1.416       .  A
C528       C1305   1.387       .  A
C528        C531   1.434       .  A
C529        C543   1.373       .  A
C529        C532   1.421       .  A
C530        C533   1.374       .  A
C531       C1303   1.352       .  A
C532        C540   1.373       .  A
C533        N534   1.340       .  A
C533        H546   1.080       .  S
N534        C535   1.349       .  A
N534        C683   1.420       .  S
C535        H536   1.081       .  S
C537       C1297   1.349       .  A
C537        N538   1.324       .  A
C537        H547   1.079       .  S
N538        C539   1.353       .  A
N538       N1210   1.386   1_565  S
C539       C1294   1.386       .  A
C539        H545   1.082       .  S
C540        N541   1.342       .  A
C540        H542   1.083       .  S
N541        C543   1.343       .  A
N541        C679   1.414       .  S
C543        H544   1.081       .  S
C548        C549   1.519       .  S
C548        C554   1.557       .  S
C548        C552   1.571       .  S
C548        C618   1.525       .  S
C549        H556   1.086       .  S
C549        C550   1.332       .  D
C550        C551   1.539       .  S
C550        C684   1.444       .  S
C551        C555   1.526       .  S
C551        C553   1.534       .  S
C551        H557   1.110       .  S
C552        C553   1.386       .  D
C553        C675   1.522       .  S
C554        H559   1.085       .  S
C554        C555   1.376       .  D
C555        C747   1.484       .  S
C560        C561   1.566       .  S
C560        C566   1.540       .  S
C560        C564   1.551       .  S
C560        C654   1.530       .  S
C561        H568   1.085       .  S
C561        C562   1.383       .  D
C562        C563   1.526       .  S
C562        C671   1.505       .  S
C563        C567   1.526       .  S
C563        C565   1.515       .  S
C563        H569   1.105       .  S
C564        H570   1.084       .  S
C564        C565   1.357       .  D
C565        C700   1.468       .  S
C566        H571   1.086       .  S
C566        C567   1.364       .  D
C567        C680   1.469       .  S
C572        C715   1.555       .  S
C572        C574   1.528       .  S
C572        C576   1.524       .  S
C572        C575   1.517       .  S
C573        C676   1.553       .  S
C573        C577   1.533       .  S
C573        C579   1.545       .  S
C573        C578   1.540       .  S
C574        C582   1.369       .  A
C574        C577   1.416       .  A
C575        C578   1.428       .  A
C576        C590   1.378       .  A
C576        C579   1.419       .  A
C577        C580   1.384       .  A
C579        C587   1.386       .  A
C580        N581   1.347       .  A
C580        H593   1.082       .  S
N581        C582   1.349       .  A
N581        C692   1.431       .  S
C582        H583   1.081       .  S
C584        N585   1.327       .  A
C584        H594   1.079       .  S
N585        C586   1.353       .  A
N585        N608   1.381   1_554  S
C586        H592   1.082       .  S
C587        N588   1.346       .  A
C587        H589   1.080       .  S
N588        C590   1.340       .  A
N588        C756   1.426       .  S
C590        H591   1.076       .  S
C595        C672   1.530       .  S
C595        C597   1.520       .  S
C595        C599   1.539       .  S
C595        C598   1.533       .  S
C596        C712   1.536       .  S
C596        C600   1.517       .  S
C596        C602   1.537       .  S
C596        C601   1.533       .  S
C597        C605   1.372       .  A
C597        C600   1.378       .  A
C598        C609   1.366       .  A
C598        C601   1.434       .  A
C599        C613   1.385       .  A
C599        C602   1.425       .  A
C600        C603   1.367       .  A
C601        C607   1.358       .  A
C602        C610   1.380       .  A
C603        N604   1.356       .  A
C603        H616   1.081       .  S
N604        C605   1.356       .  A
N604        C687   1.429       .  S
C605        H606   1.083       .  S
C607        N608   1.332       .  A
C607        H617   1.079       .  S
N608        C609   1.342       .  A
C609        H615   1.083       .  S
C610        N611   1.346       .  A
C610        H612   1.080       .  S
N611        C613   1.345       .  A
N611        C736   1.431       .  S
C613        H614   1.084       .  S
C618        N636   1.348       .  A
C618        C655   1.477       .  S
N619        N636   1.330       .  A
N619        N641   1.316       .  A
N619      Co1805   2.053       .  S
C620        N645   1.355       .  A
C620        H665   1.081       .  S
C620        C658   1.464       .  S
H621        C662   1.082       .  S
C622        N646   1.354       .  A
C622        H651   1.081       .  S
C622        C626   1.474       .  S
Co623      N1024   2.088   1_546  S
Co623      N1429   2.095   1_545  S
Co623       N639   2.089       .  S
Co623      Cl667   2.471       .  S
N624        C662   1.359       .  A
N624        N631   1.332       .  A
Co625      N1777   2.070   1_456  S
Co625       N645   2.069       .  S
Co625      N2164   2.170   1_455  S
Co625      Cl667   2.464       .  S
C626        N664   1.353       .  A
N627        N634   1.325       .  A
N627        N657   1.337       .  A
N627      Co1043   2.136       .  S
N628        N646   1.321       .  A
N628        N664   1.331       .  A
N628      Co1774   2.090       .  S
N629        C658   1.355       .  A
N629        N639   1.318       .  A
H630        C655   1.082       .  S
N631        N652   1.333       .  A
N632        N650   1.329       .  A
N632        N637   1.338       .  A
N632      Co2157   2.188       .  S
C633        N637   1.375       .  A
C633        C661   1.469       .  S
N634        C649   1.351       .  A
C635        N663   1.354       .  A
C635        H669   1.081       .  S
C635        C638   1.469       .  S
C638        N659   1.383       .  A
N639        N645   1.313       .  A
N640        C666   1.341       .  A
N640        N642   1.317       .  A
N640       Co656   2.070       .  S
N641        C655   1.341       .  A
N641      Co1006   2.103       .  S
N642        N670   1.334       .  A
N642      Co1426   2.100       .  S
H643        C666   1.081       .  S
H644        C661   1.082       .  S
N647        N659   1.346       .  A
N647        N663   1.328       .  A
N647      Co2188   2.224       .  S
C648        N652   1.351       .  A
C648        C662   1.495       .  S
C649        H653   1.080       .  S
C649        C668   1.480       .  S
N650        C661   1.343       .  A
N650       Co660   2.115       .  S
C654        N670   1.356       .  A
C654        C666   1.462       .  S
Co656      N1768   2.069   1_556  S
Co656      N2179   2.229       .  S
Co656     Cl2965   2.455       .  S
N657        C668   1.369       .  A
Co660      N1010   2.129   1_546  S
Co660      N1408   2.109   1_545  S
Co660     Cl2199   2.477       .  S
N663      Co1389   2.121       .  S
Cl667     Co2954   2.459   1_545  S
Cl667     Co2192   2.495   1_455  S
C671        H673   1.084       .  S
C671        C672   1.360       .  D
C672        H674   1.084       .  S
C675        H677   1.084       .  S
C675        C676   1.368       .  D
C676        H678   1.082       .  S
C679        H681   1.079       .  S
C679        C680   1.342       .  D
C680        H682   1.087       .  S
C683        H685   1.089       .  S
C683        C684   1.326       .  D
C684        H686   1.084       .  S
C687        H689   1.089       .  S
C687        C688   1.336       .  D
C688        H690   1.084       .  S
C691        H693   1.084       .  S
C691        C692   1.340       .  D
C692        H694   1.088       .  S
C695        H697   1.082       .  S
C695        C696   1.377       .  D
C696        H698   1.083       .  S
C699        H701   1.087       .  S
C699        C700   1.345       .  D
C700        H702   1.085       .  S
C703        H705   1.087       .  S
C703        C704   1.353       .  D
C704        H706   1.083       .  S
C707        H709   1.085       .  S
C707        C708   1.356       .  D
C708        H710   1.087       .  S
C711        H713   1.083       .  S
C711        C712   1.368       .  D
C712        H714   1.079       .  S
C715        H717   1.084       .  S
C715        C716   1.374       .  D
C716        H718   1.079       .  S
C719        H721   1.085       .  S
C719        C720   1.349       .  D
C720        H722   1.085       .  S
C723        H725   1.085       .  S
C723        C724   1.377       .  D
C724        H726   1.082       .  S
C727        H729   1.085       .  S
C727        C728   1.344       .  D
C728        H730   1.089       .  S
C731        H733   1.087       .  S
C731        C732   1.348       .  D
C732        H734   1.077       .  S
C735        H737   1.086       .  S
C735        C736   1.353       .  D
C736        H738   1.080       .  S
C739        H741   1.085       .  S
C739        C740   1.382       .  D
C740        H742   1.081       .  S
C743        H745   1.085       .  S
C743        C744   1.347       .  D
C744        H746   1.084       .  S
C747        H749   1.085       .  S
C747        C748   1.347       .  D
C748        H750   1.087       .  S
C751        H753   1.086       .  S
C751        C752   1.351       .  D
C752        H754   1.084       .  S
C755        H757   1.086       .  S
C755        C756   1.349       .  D
C756        H758   1.079       .  S
C759        H761   1.084       .  S
C759        C760   1.374       .  D
C760        H762   1.086       .  S
C763        H765   1.084       .  S
C763        C764   1.342       .  D
C764        H766   1.085       .  S
C767        C768   1.577       .  S
C767        C773   1.543       .  S
C767        C771   1.543       .  S
C767       C1031   1.558       .  S
C768        H775   1.085       .  S
C768        C769   1.391       .  D
C769        C770   1.531       .  S
C769       C1142   1.528       .  S
C770        C774   1.536       .  S
C770        C772   1.526       .  S
C770        H776   1.108       .  S
C771        H777   1.086       .  S
C771        C772   1.366       .  D
C772       C1147   1.470       .  S
C773        H778   1.086       .  S
C773        C774   1.369       .  D
C774       C1138   1.489       .  S
C779       C1146   1.512       .  S
C779        C781   1.538       .  S
C779        C783   1.540       .  S
C779        C782   1.522       .  S
C780       C1134   1.515       .  S
C780        C784   1.522       .  S
C780        C786   1.551       .  S
C780        C785   1.527       .  S
C781        C789   1.383       .  A
C781        C784   1.378       .  A
C782        C793   1.351       .  A
C782        C785   1.392       .  A
C783        C797   1.392       .  A
C783        C786   1.428       .  A
C784        C787   1.379       .  A
C785        C791   1.366       .  A
C786        C794   1.380       .  A
C787        N788   1.358       .  A
C787        H800   1.082       .  S
N788        C789   1.358       .  A
N788       C1131   1.440       .  S
C789        H790   1.082       .  S
C791       N2324   1.358       .  A
C791       H2333   1.082       .  S
N792       C2323   1.344       .  A
N792       C2325   1.345       .  A
N792       N2406   1.391       .  S
C793       N2324   1.355       .  A
C793       H2331   1.082       .  S
C794        N795   1.345       .  A
C794        H796   1.081       .  S
N795        C797   1.347       .  A
N795       C1126   1.438       .  S
C797        H798   1.079       .  S
H799       C2325   1.080       .  S
H801       C2323   1.081       .  S
C802        C803   1.583       .  S
C802        C808   1.552       .  S
C802        C806   1.544       .  S
C802       C1021   1.569       .  S
C803        H810   1.085       .  S
C803        C804   1.394       .  D
C804        C805   1.530       .  S
C804       C1122   1.544       .  S
C805        C809   1.523       .  S
C805        C807   1.533       .  S
C805        H811   1.098       .  S
C806        H812   1.086       .  S
C806        C807   1.365       .  D
C807       C1135   1.493       .  S
C808        H813   1.086       .  S
C808        C809   1.374       .  D
C809       C1118   1.482       .  S
C814       C1143   1.557       .  S
C814        C816   1.534       .  S
C814        C818   1.531       .  S
C814        C817   1.540       .  S
C815       C1106   1.561       .  S
C815        C819   1.509       .  S
C815        C821   1.530       .  S
C815        C820   1.533       .  S
C816        C824   1.377       .  A
C816        C819   1.400       .  A
C817        C828   1.381       .  A
C817        C820   1.444       .  A
C818        C832   1.377       .  A
C818        C821   1.421       .  A
C819        C822   1.358       .  A
C820        C826   1.352       .  A
C821        C829   1.370       .  A
C822        N823   1.343       .  A
C822        H835   1.081       .  S
N823        C824   1.358       .  A
N823       C1111   1.421       .  S
C824        H825   1.082       .  S
C829        N830   1.344       .  A
C829        H831   1.083       .  S
N830        C832   1.341       .  A
N830       C1115   1.417       .  S
C832        H833   1.084       .  S
C837        C838   1.578       .  S
C837        C843   1.539       .  S
C837        C841   1.546       .  S
C837       C1009   1.544       .  S
C838        H845   1.085       .  S
C838        C839   1.392       .  D
C839        C840   1.525       .  S
C839       C1099   1.528       .  S
C840        C844   1.525       .  S
C840        C842   1.527       .  S
C840        H846   1.095       .  S
C841        H847   1.086       .  S
C841        C842   1.363       .  D
C842       C1102   1.486       .  S
C843        H848   1.085       .  S
C843        C844   1.361       .  D
C844       C1114   1.466       .  S
C849        C850   1.544       .  S
C849        C855   1.573       .  S
C849        C853   1.525       .  S
C849       C1041   1.533       .  S
C850        H857   1.086       .  S
C850        C851   1.367       .  D
C851        C852   1.531       .  S
C851       C1127   1.478       .  S
C852        C856   1.529       .  S
C852        C854   1.529       .  S
C852        H858   1.111       .  S
C853        H859   1.086       .  S
C853        C854   1.335       .  D
C854       C1110   1.446       .  S
C855        H860   1.085       .  S
C855        C856   1.395       .  D
C856       C1094   1.512       .  S
C861       C1082   1.530       .  S
C861        C863   1.544       .  S
C861        C865   1.541       .  S
C861        C864   1.530       .  S
C862       C1103   1.513       .  S
C862        C866   1.529       .  S
C862        C868   1.523       .  S
C862        C867   1.524       .  S
C863        C871   1.397       .  A
C863        C866   1.404       .  A
C864       C2407   1.363       .  A
C864        C867   1.422       .  A
C865        C879   1.384       .  A
C865        C868   1.411       .  A
C866        C869   1.381       .  A
C867       C2405   1.361       .  A
C868        C876   1.388       .  A
C869        N870   1.347       .  A
C869        H882   1.083       .  S
N870        C871   1.357       .  A
N870       C1091   1.444       .  S
C871        H872   1.081       .  S
C873       C2399   1.349       .  A
C873        N874   1.349       .  A
C873        H883   1.079       .  S
N874        C875   1.350       .  A
N874       N2324   1.395   1_655  S
C875       C2396   1.374       .  A
C875        H881   1.082       .  S
C876        N877   1.346       .  A
C876        H878   1.083       .  S
N877        C879   1.342       .  A
N877       C1087   1.436       .  S
C879        H880   1.080       .  S
C884        C885   1.531       .  S
C884        C890   1.554       .  S
C884        C888   1.580       .  S
C884       C1051   1.546       .  S
C885        H892   1.087       .  S
C885        C886   1.353       .  D
C886        C887   1.529       .  S
C886       C1074   1.460       .  S
C887        C891   1.519       .  S
C887        C889   1.524       .  S
C887        H893   1.108       .  S
C888        H894   1.085       .  S
C888        C889   1.396       .  D
C889       C1078   1.522       .  S
C890        H895   1.086       .  S
C890        C891   1.369       .  D
C891       C1090   1.482       .  S
C896        C897   1.526       .  S
C896        C902   1.544       .  S
C896        C900   1.589       .  S
C896       C1016   1.543       .  S
C897        H904   1.087       .  S
C897        C898   1.347       .  D
C898        C899   1.525       .  S
C898       C1071   1.450       .  S
C899        C903   1.525       .  S
C899        C901   1.518       .  S
C899        H905   1.109       .  S
C900        H906   1.085       .  S
C900        C901   1.400       .  D
C901       C1107   1.527       .  S
C902        H907   1.086       .  S
C902        C903   1.366       .  D
C903       C1086   1.468       .  S
C908       C1123   1.564       .  S
C908        C910   1.515       .  S
C908        C912   1.530       .  S
C908        C911   1.541       .  S
C909       C1079   1.559       .  S
C909        C913   1.529       .  S
C909        C915   1.533       .  S
C909        C914   1.528       .  S
C910        C918   1.354       .  A
C910        C913   1.414       .  A
C911        C914   1.430       .  A
C912        C926   1.377       .  A
C912        C915   1.428       .  A
C913        C916   1.382       .  A
C915        C923   1.370       .  A
C916        N917   1.347       .  A
C916        H929   1.081       .  S
N917        C918   1.345       .  A
N917       C1066   1.425       .  S
C918        H919   1.081       .  S
C920        N921   1.323       .  A
C920        H930   1.078       .  S
N921        C922   1.351       .  A
C922        H928   1.081       .  S
C923        N924   1.337       .  A
C923        H925   1.078       .  S
N924        C926   1.341       .  A
N924       C1062   1.417       .  S
C926        H927   1.080       .  S
C931        C932   1.523       .  S
C931        C937   1.550       .  S
C931        C935   1.562       .  S
C931       C1001   1.520       .  S
C932        H939   1.087       .  S
C932        C933   1.337       .  D
C933        C934   1.543       .  S
C933       C1067   1.452       .  S
C934        C938   1.528       .  S
C934        C936   1.530       .  S
C934        H940   1.110       .  S
C935       H1324   1.086       .  S
C935        C936   1.381       .  D
C936       C1058   1.510       .  S
C937        H942   1.085       .  S
C937        C938   1.374       .  D
C938       C1130   1.476       .  S
H941       C1318   1.085       .  S
C943        C944   1.567       .  S
C943        C949   1.543       .  S
C943        C947   1.557       .  S
C943       C1037   1.541       .  S
C944        H951   1.085       .  S
C944        C945   1.383       .  D
C945        C946   1.524       .  S
C945       C1054   1.517       .  S
C946        C950   1.522       .  S
C946        C948   1.533       .  S
C946        H952   1.103       .  S
C947        H953   1.085       .  S
C947        C948   1.364       .  D
C948       C1083   1.502       .  S
C949        H954   1.086       .  S
C949        C950   1.366       .  D
C950       C1063   1.468       .  S
C955       C1098   1.552       .  S
C955        C957   1.525       .  S
C955        C959   1.533       .  S
C955        C958   1.528       .  S
C956       C1059   1.552       .  S
C956        C960   1.536       .  S
C956        C962   1.543       .  S
C956        C961   1.531       .  S
C957        C965   1.372       .  A
C957        C960   1.411       .  A
C958       C1352   1.367       .  A
C958        C961   1.427       .  A
C959        C973   1.381       .  A
C959        C962   1.421       .  A
C960        C963   1.384       .  A
C961       C1350   1.362       .  A
C962        C970   1.388       .  A
C963        N964   1.348       .  A
C963        H976   1.081       .  S
N964        C965   1.349       .  A
N964       C1075   1.433       .  S
C965        H966   1.081       .  S
C967       C1344   1.352       .  A
C967        N968   1.326       .  A
C967        H977   1.080       .  S
N968        C969   1.350       .  A
N968        N991   1.379       .  S
C969       C1341   1.369       .  A
C969        H975   1.082       .  S
C970        N971   1.349       .  A
C970        H972   1.080       .  S
N971        C973   1.343       .  A
N971       C1139   1.433       .  S
C973        H974   1.077       .  S
C978       C1055   1.542       .  S
C978        C980   1.516       .  S
C978        C982   1.541       .  S
C978        C981   1.538       .  S
C979       C1095   1.547       .  S
C979        C983   1.516       .  S
C979        C985   1.536       .  S
C979        C984   1.533       .  S
C980        C988   1.370       .  A
C980        C983   1.379       .  A
C981        C992   1.367       .  A
C981        C984   1.437       .  A
C982        C996   1.385       .  A
C982        C985   1.429       .  A
C983        C986   1.365       .  A
C984        C990   1.352       .  A
C985        C993   1.379       .  A
C986        N987   1.356       .  A
C986        H999   1.082       .  S
N987        C988   1.354       .  A
N987       C1070   1.427       .  S
C988        H989   1.083       .  S
C990        N991   1.329       .  A
C990       H1000   1.079       .  S
N991        C992   1.345       .  A
C992        H998   1.083       .  S
C993        N994   1.344       .  A
C993        H995   1.078       .  S
N994        C996   1.344       .  A
N994       C1119   1.430       .  S
C996        H997   1.084       .  S
C1001      N1019   1.351       .  A
C1001      C1038   1.470       .  S
N1002      N1019   1.330       .  A
N1002      N1024   1.316       .  A
N1002     Co2954   2.070   1_554  S
C1003      N1028   1.357       .  A
C1003      H1048   1.081       .  S
C1003      C1041   1.465       .  S
H1004      C1045   1.081       .  S
C1005      N1029   1.355       .  A
C1005      H1034   1.081       .  S
C1005      C1009   1.479       .  S
Co1006     N1397   2.107       .  S
Co1006     N1022   2.091       .  S
Co1006    Cl1050   2.457       .  S
N1007      C1045   1.362       .  A
N1007      N1014   1.333       .  A
N1007     Co1391   2.223   1_554  S
Co1008     N1390   2.217       .  S
Co1008     N2926   2.072   1_455  S
Co1008     N1028   2.070       .  S
Co1008     N2547   2.206   1_455  S
Co1008    Cl1050   2.481       .  S
C1009      N1047   1.351       .  A
N1010      N1017   1.329       .  A
N1010      N1040   1.335       .  A
N1011      N1029   1.317       .  A
N1011      N1047   1.331       .  A
N1011     Co2923   2.074   1_554  S
N1012      C1041   1.353       .  A
N1012      N1022   1.318       .  A
H1013      C1038   1.082       .  S
N1014      N1035   1.332       .  A
N1014     Co1389   2.088   1_554  S
N1015      N1033   1.328       .  A
N1015      N1020   1.337       .  A
N1015     Co2540   2.191       .  S
C1016      N1020   1.375       .  A
C1016      C1044   1.467       .  S
N1017      C1032   1.350       .  A
N1017     Co1422   2.168   1_554  S
C1018      N1046   1.351       .  A
C1018      H1052   1.082       .  S
C1018      C1021   1.466       .  S
C1021      N1042   1.379       .  A
N1022      N1028   1.316       .  A
N1023      C1049   1.341       .  A
N1023      N1025   1.320       .  A
N1023     Co1039   2.077       .  S
N1024      C1038   1.337       .  A
N1025      N1053   1.338       .  A
H1026      C1049   1.082       .  S
H1027      C1044   1.082       .  S
N1029     Co1426   2.124   1_554  S
N1030      N1042   1.343       .  A
N1030      N1046   1.328       .  A
N1030     Co2571   2.210       .  S
C1031      N1035   1.349       .  A
C1031      C1045   1.497       .  S
C1032      H1036   1.082       .  S
C1032      C1051   1.486       .  S
N1033      C1044   1.345       .  A
N1033     Co1043   2.107       .  S
C1037      N1053   1.363       .  A
C1037      C1049   1.458       .  S
Co1039     N2917   2.070       .  S
Co1039     N1400   2.183       .  S
Co1039     N2562   2.198       .  S
Co1039    Cl1816   2.471   1_565  S
N1040      C1051   1.362       .  A
Co1043     N1412   2.139       .  S
Co1043    Cl2582   2.502       .  S
Cl1050    Co1805   2.467       .  S
Cl1050    Co2575   2.471   1_455  S
C1054      H1056   1.084       .  S
C1054      C1055   1.365       .  D
C1055      H1057   1.086       .  S
C1058      H1060   1.082       .  S
C1058      C1059   1.369       .  D
C1059      H1061   1.084       .  S
C1062      H1064   1.079       .  S
C1062      C1063   1.345       .  D
C1063      H1065   1.085       .  S
C1066      H1068   1.088       .  S
C1066      C1067   1.335       .  D
C1067      H1069   1.084       .  S
C1070      H1072   1.089       .  S
C1070      C1071   1.335       .  D
C1071      H1073   1.084       .  S
C1074      H1076   1.083       .  S
C1074      C1075   1.342       .  D
C1075      H1077   1.088       .  S
C1078      H1080   1.083       .  S
C1078      C1079   1.378       .  D
C1079      H1081   1.080       .  S
C1082      H1084   1.080       .  S
C1082      C1083   1.347       .  D
C1083      H1085   1.084       .  S
C1086      H1088   1.083       .  S
C1086      C1087   1.348       .  D
C1087      H1089   1.083       .  S
C1090      H1092   1.085       .  S
C1090      C1091   1.353       .  D
C1091      H1093   1.087       .  S
C1094      H1096   1.082       .  S
C1094      C1095   1.373       .  D
C1095      H1097   1.079       .  S
C1098      H1100   1.080       .  S
C1098      C1099   1.374       .  D
C1099      H1101   1.081       .  S
C1102      H1104   1.085       .  S
C1102      C1103   1.347       .  D
C1103      H1105   1.085       .  S
C1106      H1108   1.076       .  S
C1106      C1107   1.385       .  D
C1107      H1109   1.082       .  S
C1110      H1112   1.085       .  S
C1110      C1111   1.347       .  D
C1111      H1113   1.088       .  S
C1114      H1116   1.087       .  S
C1114      C1115   1.344       .  D
C1115      H1117   1.076       .  S
C1118      H1120   1.086       .  S
C1118      C1119   1.353       .  D
C1119      H1121   1.080       .  S
C1122      H1124   1.083       .  S
C1122      C1123   1.379       .  D
C1123      H1125   1.080       .  S
C1126      H1128   1.085       .  S
C1126      C1127   1.343       .  D
C1127      H1129   1.084       .  S
C1130      H1132   1.085       .  S
C1130      C1131   1.346       .  D
C1131      H1133   1.087       .  S
C1134      H1136   1.084       .  S
C1134      C1135   1.351       .  D
C1135      H1137   1.086       .  S
C1138      H1140   1.086       .  S
C1138      C1139   1.349       .  D
C1139      H1141   1.079       .  S
C1142      H1144   1.085       .  S
C1142      C1143   1.374       .  D
C1143      H1145   1.086       .  S
C1146      H1148   1.087       .  S
C1146      C1147   1.341       .  D
C1147      H1149   1.084       .  S
C1150      C1151   1.573       .  S
C1150      C1156   1.559       .  S
C1150      C1154   1.546       .  S
C1150      C1414   1.568       .  S
C1151      H1158   1.085       .  S
C1151      C1152   1.385       .  D
C1152      C1153   1.533       .  S
C1152      C1525   1.529       .  S
C1153      C1157   1.527       .  S
C1153      C1155   1.524       .  S
C1153      H1159   1.102       .  S
C1154      H1160   1.086       .  S
C1154      C1155   1.366       .  D
C1155      C1530   1.481       .  S
C1156      H1161   1.085       .  S
C1156      C1157   1.381       .  D
C1157      C1521   1.495       .  S
C1162      C1529   1.522       .  S
C1162      C1164   1.541       .  S
C1162      C1166   1.545       .  S
C1162      C1165   1.509       .  S
C1163      C1517   1.524       .  S
C1163      C1167   1.529       .  S
C1163      C1169   1.534       .  S
C1163      C1168   1.526       .  S
C1164      C1172   1.396       .  A
C1164      C1167   1.406       .  A
C1165      C1176   1.353       .  A
C1165      C1168   1.396       .  A
C1166      C1180   1.380       .  A
C1166      C1169   1.422       .  A
C1167      C1170   1.370       .  A
C1168      C1174   1.363       .  A
C1169      C1177   1.386       .  A
C1170      N1171   1.342       .  A
C1170      H1183   1.082       .  S
N1171      C1172   1.358       .  A
N1171      C1514   1.436       .  S
C1172      H1173   1.082       .  S
C1174      N2707   1.353       .  A
C1174      H2716   1.081       .  S
N1175      C2706   1.351       .  A
N1175      C2708   1.344       .  A
N1175      N2789   1.396       .  S
C1176      N2707   1.344       .  A
C1176      H2714   1.081       .  S
C1177      N1178   1.348       .  A
C1177      H1179   1.080       .  S
N1178      C1180   1.342       .  A
N1178      C1509   1.431       .  S
C1180      H1181   1.080       .  S
H1182      C2708   1.080       .  S
H1184      C2706   1.080       .  S
C1185      C1186   1.588       .  S
C1185      C1191   1.530       .  S
C1185      C1189   1.549       .  S
C1185      C1404   1.558       .  S
C1186      H1193   1.085       .  S
C1186      C1187   1.400       .  D
C1187      C1188   1.536       .  S
C1187      C1505   1.548       .  S
C1188      C1192   1.525       .  S
C1188      C1190   1.534       .  S
C1188      H1194   1.106       .  S
C1189      H1195   1.086       .  S
C1189      C1190   1.372       .  D
C1190      C1518   1.495       .  S
C1191      H1196   1.087       .  S
C1191      C1192   1.353       .  D
C1192      C1501   1.447       .  S
C1197      C1526   1.553       .  S
C1197      C1199   1.513       .  S
C1197      C1201   1.530       .  S
C1197      C1200   1.540       .  S
C1198      C1489   1.564       .  S
C1198      C1202   1.518       .  S
C1198      C1204   1.533       .  S
C1198      C1203   1.543       .  S
C1199      C1207   1.368       .  A
C1199      C1202   1.395       .  A
C1200      C1211   1.378       .  A
C1200      C1203   1.447       .  A
C1201      C1215   1.379       .  A
C1201      C1204   1.422       .  A
C1202      C1205   1.370       .  A
C1203      C1209   1.351       .  A
C1204      C1212   1.374       .  A
C1205      N1206   1.350       .  A
C1205      H1218   1.082       .  S
N1206      C1207   1.354       .  A
N1206      C1494   1.422       .  S
C1207      H1208   1.083       .  S
C1212      N1213   1.341       .  A
C1212      H1214   1.078       .  S
N1213      C1215   1.342       .  A
N1213      C1498   1.423       .  S
C1215      H1216   1.084       .  S
C1220      C1221   1.575       .  S
C1220      C1226   1.550       .  S
C1220      C1224   1.549       .  S
C1220      C1392   1.549       .  S
C1221      H1228   1.085       .  S
C1221      C1222   1.387       .  D
C1222      C1223   1.522       .  S
C1222      C1482   1.528       .  S
C1223      C1227   1.518       .  S
C1223      C1225   1.534       .  S
C1223      H1229   1.087       .  S
C1224      H1230   1.086       .  S
C1224      C1225   1.363       .  D
C1225      C1485   1.496       .  S
C1226      H1231   1.085       .  S
C1226      C1227   1.369       .  D
C1227      C1497   1.482       .  S
C1232      C1233   1.559       .  S
C1232      C1238   1.568       .  S
C1232      C1236   1.520       .  S
C1232      C1424   1.527       .  S
C1233      H1240   1.085       .  S
C1233      C1234   1.377       .  D
C1234      C1235   1.525       .  S
C1234      C1510   1.481       .  S
C1235      C1239   1.527       .  S
C1235      C1237   1.526       .  S
C1235      H1241   1.109       .  S
C1236      H1242   1.089       .  S
C1236      C1237   1.332       .  D
C1237      C1493   1.441       .  S
C1238      H1243   1.085       .  S
C1238      C1239   1.387       .  D
C1239      C1477   1.519       .  S
C1244      C1465   1.516       .  S
C1244      C1246   1.554       .  S
C1244      C1248   1.539       .  S
C1244      C1247   1.525       .  S
C1245      C1486   1.504       .  S
C1245      C1249   1.526       .  S
C1245      C1251   1.520       .  S
C1245      C1250   1.538       .  S
C1246      C1254   1.410       .  A
C1246      C1249   1.404       .  A
C1247      C2790   1.358       .  A
C1247      C1250   1.425       .  A
C1248      C1262   1.388       .  A
C1248      C1251   1.399       .  A
C1249      C1252   1.372       .  A
C1250      C2788   1.376       .  A
C1251      C1259   1.389       .  A
C1252      N1253   1.339       .  A
C1252      H1265   1.084       .  S
N1253      C1254   1.361       .  A
N1253      C1474   1.444       .  S
C1254      H1255   1.081       .  S
C1256      C2782   1.360       .  A
C1256      N1257   1.356       .  A
C1256      H1266   1.080       .  S
N1257      C1258   1.345       .  A
N1257      N2707   1.389   1_655  S
C1258      C2779   1.352       .  A
C1258      H1264   1.082       .  S
C1259      N1260   1.347       .  A
C1259      H1261   1.083       .  S
N1260      C1262   1.343       .  A
N1260      C1470   1.439       .  S
C1262      H1263   1.080       .  S
C1267      C1268   1.519       .  S
C1267      C1273   1.552       .  S
C1267      C1271   1.585       .  S
C1267      C1434   1.543       .  S
C1268      H1275   1.088       .  S
C1268      C1269   1.339       .  D
C1269      C1270   1.534       .  S
C1269      C1457   1.451       .  S
C1270      C1274   1.525       .  S
C1270      C1272   1.528       .  S
C1270      H1276   1.108       .  S
C1271      H1277   1.085       .  S
C1271      C1272   1.401       .  D
C1272      C1461   1.530       .  S
C1273      H1278   1.085       .  S
C1273      C1274   1.371       .  D
C1274      C1473   1.486       .  S
C1279      C1280   1.516       .  S
C1279      C1285   1.546       .  S
C1279      C1283   1.585       .  S
C1279      C1399   1.531       .  S
C1280      H1287   1.089       .  S
C1280      C1281   1.334       .  D
C1281      C1282   1.539       .  S
C1281      C1454   1.446       .  S
C1282      C1286   1.525       .  S
C1282      C1284   1.528       .  S
C1282      H1288   1.107       .  S
C1283      H1289   1.085       .  S
C1283      C1284   1.400       .  D
C1284      C1490   1.533       .  S
C1285      H1290   1.086       .  S
C1285      C1286   1.365       .  D
C1286      C1469   1.472       .  S
C1291      C1506   1.576       .  S
C1291      C1293   1.517       .  S
C1291      C1295   1.533       .  S
C1291      C1294   1.548       .  S
C1292      C1462   1.569       .  S
C1292      C1296   1.535       .  S
C1292      C1298   1.532       .  S
C1292      C1297   1.529       .  S
C1293      C1301   1.358       .  A
C1293      C1296   1.420       .  A
C1294      C1297   1.435       .  A
C1295      C1309   1.378       .  A
C1295      C1298   1.426       .  A
C1296      C1299   1.382       .  A
C1298      C1306   1.374       .  A
C1299      N1300   1.347       .  A
C1299      H1312   1.081       .  S
N1300      C1301   1.344       .  A
N1300      C1449   1.426       .  S
C1301      H1302   1.081       .  S
C1303      N1304   1.324       .  A
C1303      H1313   1.079       .  S
N1304      C1305   1.352       .  A
C1305      H1311   1.082       .  S
C1306      N1307   1.339       .  A
C1306      H1308   1.083       .  S
N1307      C1309   1.344       .  A
N1307      C1445   1.419       .  S
C1309      H1310   1.083       .  S
C1314      C1315   1.517       .  S
C1314      C1320   1.551       .  S
C1314      C1318   1.565       .  S
C1314      C1384   1.517       .  S
C1315      H1322   1.088       .  S
C1315      C1316   1.335       .  D
C1316      C1317   1.542       .  S
C1316      C1450   1.451       .  S
C1317      C1321   1.533       .  S
C1317      C1319   1.529       .  S
C1317      H1323   1.108       .  S
C1318      C1319   1.387       .  D
C1319      C1441   1.517       .  S
C1320      H1325   1.085       .  S
C1320      C1321   1.370       .  D
C1321      C1513   1.478       .  S
C1326      C1327   1.576       .  S
C1326      C1332   1.548       .  S
C1326      C1330   1.548       .  S
C1326      C1420   1.539       .  S
C1327      H1334   1.085       .  S
C1327      C1328   1.387       .  D
C1328      C1329   1.521       .  S
C1328      C1437   1.526       .  S
C1329      C1333   1.519       .  S
C1329      C1331   1.531       .  S
C1329      H1335   1.101       .  S
C1330      H1336   1.086       .  S
C1330      C1331   1.358       .  D
C1331      C1466   1.488       .  S
C1332      H1337   1.086       .  S
C1332      C1333   1.367       .  D
C1333      C1446   1.471       .  S
C1338      C1481   1.547       .  S
C1338      C1340   1.503       .  S
C1338      C1342   1.531       .  S
C1338      C1341   1.533       .  S
C1339      C1442   1.559       .  S
C1339      C1343   1.541       .  S
C1339      C1345   1.547       .  S
C1339      C1344   1.525       .  S
C1340      C1348   1.358       .  A
C1340      C1343   1.400       .  A
C1341      C1344   1.426       .  A
C1342      C1356   1.375       .  A
C1342      C1345   1.433       .  A
C1343      C1346   1.385       .  A
C1345      C1353   1.388       .  A
C1346      N1347   1.353       .  A
C1346      H1359   1.081       .  S
N1347      C1348   1.344       .  A
N1347      C1458   1.427       .  S
C1348      H1349   1.081       .  S
C1350      N1351   1.333       .  A
C1350      H1360   1.080       .  S
N1351      C1352   1.342       .  A
N1351      N1374   1.378   1_554  S
C1352      H1358   1.080       .  S
C1353      N1354   1.350       .  A
C1353      H1355   1.080       .  S
N1354      C1356   1.338       .  A
N1354      C1522   1.426       .  S
C1356      H1357   1.084       .  S
C1361      C1438   1.553       .  S
C1361      C1363   1.528       .  S
C1361      C1365   1.546       .  S
C1361      C1364   1.525       .  S
C1362      C1478   1.554       .  S
C1362      C1366   1.523       .  S
C1362      C1368   1.525       .  S
C1362      C1367   1.516       .  S
C1363      C1371   1.377       .  A
C1363      C1366   1.425       .  A
C1364      C1375   1.363       .  A
C1364      C1367   1.402       .  A
C1365      C1379   1.377       .  A
C1365      C1368   1.427       .  A
C1366      C1369   1.358       .  A
C1367      C1373   1.350       .  A
C1368      C1376   1.375       .  A
C1369      N1370   1.347       .  A
C1369      H1382   1.080       .  S
N1370      C1371   1.344       .  A
N1370      C1453   1.423       .  S
C1371      H1372   1.082       .  S
C1373      N1374   1.341       .  A
C1373      H1383   1.081       .  S
N1374      C1375   1.352       .  A
C1375      H1381   1.082       .  S
C1376      N1377   1.339       .  A
C1376      H1378   1.082       .  S
N1377      C1379   1.346       .  A
N1377      C1502   1.426       .  S
C1379      H1380   1.080       .  S
C1384      N1402   1.347       .  A
C1384      C1421   1.476       .  S
N1385      N1402   1.327       .  A
N1385      N1407   1.312       .  A
N1385     Co2571   2.044       .  S
C1386      N1411   1.353       .  A
C1386      H1431   1.081       .  S
C1386      C1424   1.468       .  S
H1387      C1428   1.081       .  S
C1388      N1412   1.359       .  A
C1388      H1417   1.081       .  S
C1388      C1392   1.481       .  S
Co1389     N1405   2.104       .  S
Co1389    Cl1433   2.484       .  S
N1390      C1428   1.364       .  A
N1390      N1397   1.333       .  A
Co1391     N2543   2.075   1_456  S
Co1391     N1411   2.085       .  S
Co1391     N2930   2.253   1_455  S
Co1391    Cl1433   2.471       .  S
C1392      N1430   1.352       .  A
N1393      N1400   1.329       .  A
N1393      N1423   1.333       .  A
N1394      N1412   1.323       .  A
N1394      N1430   1.330       .  A
N1394     Co2540   2.091       .  S
N1395      C1424   1.356       .  A
N1395      N1405   1.324       .  A
H1396      C1421   1.082       .  S
N1397      N1418   1.334       .  A
N1398      N1416   1.326       .  A
N1398      N1403   1.333       .  A
N1398     Co2923   2.180       .  S
C1399      N1403   1.375       .  A
C1399      C1427   1.468       .  S
N1400      C1415   1.352       .  A
C1401      N1429   1.347       .  A
C1401      H1435   1.082       .  S
C1401      C1404   1.465       .  S
C1404      N1425   1.381       .  A
N1405      N1411   1.322       .  A
N1406      C1432   1.345       .  A
N1406      N1408   1.317       .  A
N1406     Co1422   2.076       .  S
N1407      C1421   1.346       .  A
N1408      N1436   1.336       .  A
H1409      C1432   1.082       .  S
H1410      C1427   1.082       .  S
N1413      N1425   1.341       .  A
N1413      N1429   1.325       .  A
N1413     Co2954   2.208       .  S
C1414      N1418   1.352       .  A
C1414      C1428   1.498       .  S
C1415      H1419   1.082       .  S
C1415      C1434   1.492       .  S
N1416      C1427   1.344       .  A
N1416     Co1426   2.095       .  S
C1420      N1436   1.358       .  A
C1420      C1432   1.463       .  S
Co1422     N2534   2.062       .  S
Co1422     N2945   2.184       .  S
Co1422    Cl2199   2.466   1_565  S
N1423      C1434   1.357       .  A
Co1426    Cl2965   2.486       .  S
Cl1433    Co2188   2.473       .  S
Cl1433    Co2958   2.492   1_455  S
C1437      H1439   1.085       .  S
C1437      C1438   1.371       .  D
C1438      H1440   1.084       .  S
C1441      H1443   1.084       .  S
C1441      C1442   1.378       .  D
C1442      H1444   1.084       .  S
C1445      H1447   1.084       .  S
C1445      C1446   1.346       .  D
C1446      H1448   1.086       .  S
C1449      H1451   1.089       .  S
C1449      C1450   1.334       .  D
C1450      H1452   1.082       .  S
C1453      H1455   1.089       .  S
C1453      C1454   1.331       .  D
C1454      H1456   1.083       .  S
C1457      H1459   1.082       .  S
C1457      C1458   1.340       .  D
C1458      H1460   1.089       .  S
C1461      H1463   1.083       .  S
C1461      C1462   1.383       .  D
C1462      H1464   1.079       .  S
C1465      H1467   1.081       .  S
C1465      C1466   1.339       .  D
C1466      H1468   1.083       .  S
C1469      H1471   1.084       .  S
C1469      C1470   1.349       .  D
C1470      H1472   1.084       .  S
C1473      H1475   1.086       .  S
C1473      C1474   1.337       .  D
C1474      H1476   1.089       .  S
C1477      H1479   1.084       .  S
C1477      C1478   1.374       .  D
C1478      H1480   1.084       .  S
C1481      H1483   1.085       .  S
C1481      C1482   1.371       .  D
C1482      H1484   1.084       .  S
C1485      H1487   1.085       .  S
C1485      C1486   1.344       .  D
C1486      H1488   1.076       .  S
C1489      H1491   1.077       .  S
C1489      C1490   1.382       .  D
C1490      H1492   1.083       .  S
C1493      H1495   1.085       .  S
C1493      C1494   1.336       .  D
C1494      H1496   1.088       .  S
C1497      H1499   1.086       .  S
C1497      C1498   1.354       .  D
C1498      H1500   1.081       .  S
C1501      H1503   1.082       .  S
C1501      C1502   1.333       .  D
C1502      H1504   1.087       .  S
C1505      H1507   1.084       .  S
C1505      C1506   1.381       .  D
C1506      H1508   1.084       .  S
C1509      H1511   1.086       .  S
C1509      C1510   1.348       .  D
C1510      H1512   1.085       .  S
C1513      H1515   1.085       .  S
C1513      C1514   1.338       .  D
C1514      H1516   1.090       .  S
C1517      H1519   1.079       .  S
C1517      C1518   1.357       .  D
C1518      H1520   1.084       .  S
C1521      H1523   1.086       .  S
C1521      C1522   1.359       .  D
C1522      H1524   1.076       .  S
C1525      H1527   1.085       .  S
C1525      C1526   1.366       .  D
C1526      H1528   1.086       .  S
C1529      H1531   1.084       .  S
C1529      C1530   1.356       .  D
C1530      H1532   1.085       .  S
C1533      C1534   1.580       .  S
C1533      C1539   1.527       .  S
C1533      C1537   1.556       .  S
C1533      C1797   1.560       .  S
C1534      H1541   1.085       .  S
C1534      C1535   1.393       .  D
C1535      C1536   1.531       .  S
C1535      C1908   1.538       .  S
C1536      C1540   1.532       .  S
C1536      C1538   1.534       .  S
C1536      H1542   1.106       .  S
C1537      H1543   1.085       .  S
C1537      C1538   1.378       .  D
C1538      C1913   1.498       .  S
C1539      H1544   1.087       .  S
C1539      C1540   1.354       .  D
C1540      C1904   1.458       .  S
C1545      C1912   1.520       .  S
C1545      C1547   1.553       .  S
C1545      C1549   1.531       .  S
C1545      C1548   1.527       .  S
C1546      C1900   1.518       .  S
C1546      C1550   1.536       .  S
C1546      C1552   1.535       .  S
C1546      C1551   1.524       .  S
C1547      C1555   1.390       .  A
C1547      C1550   1.430       .  A
C1548      C1559   1.362       .  A
C1548      C1551   1.395       .  A
C1549      C1563   1.385       .  A
C1549      C1552   1.379       .  A
C1550      C1553   1.383       .  A
C1551      C1557   1.355       .  A
C1552      C1560   1.381       .  A
C1553      N1554   1.340       .  A
C1553      H1566   1.079       .  S
N1554      C1555   1.348       .  A
N1554      C1897   1.431       .  S
C1555      H1556   1.082       .  S
C1560      N1561   1.357       .  A
C1560      H1562   1.082       .  S
N1561      C1563   1.360       .  A
N1561      C1892   1.441       .  S
C1563      H1564   1.082       .  S
C1568      C1569   1.571       .  S
C1568      C1574   1.544       .  S
C1568      C1572   1.547       .  S
C1568      C1787   1.554       .  S
C1569      H1576   1.085       .  S
C1569      C1570   1.387       .  D
C1570      C1571   1.530       .  S
C1570      C1888   1.520       .  S
C1571      C1575   1.531       .  S
C1571      C1573   1.525       .  S
C1571      H1577   1.106       .  S
C1572      H1578   1.086       .  S
C1572      C1573   1.368       .  D
C1573      C1901   1.476       .  S
C1574      H1579   1.086       .  S
C1574      C1575   1.369       .  D
C1575      C1884   1.484       .  S
C1580      C1909   1.573       .  S
C1580      C1582   1.511       .  S
C1580      C1584   1.532       .  S
C1580      C1583   1.543       .  S
C1581      C1872   1.577       .  S
C1581      C1585   1.531       .  S
C1581      C1587   1.537       .  S
C1581      C1586   1.534       .  S
C1582      C1590   1.356       .  A
C1582      C1585   1.415       .  A
C1583      C1594   1.385       .  A
C1583      C1586   1.434       .  A
C1584      C1598   1.370       .  A
C1584      C1587   1.427       .  A
C1585      C1588   1.376       .  A
C1586      C1592   1.347       .  A
C1587      C1595   1.377       .  A
C1588      N1589   1.346       .  A
C1588      H1601   1.082       .  S
N1589      C1590   1.348       .  A
N1589      C1877   1.422       .  S
C1590      H1591   1.081       .  S
C1592      N2359   1.333       .  A
C1592      H2368   1.078       .  S
N1593      C2358   1.331       .  A
N1593      C2360   1.348       .  A
N1593      N2453   1.389       .  S
C1594      N2359   1.347       .  A
C1594      H2366   1.081       .  S
C1595      N1596   1.348       .  A
C1595      H1597   1.080       .  S
N1596      C1598   1.338       .  A
N1596      C1881   1.420       .  S
C1598      H1599   1.082       .  S
H1600      C2360   1.082       .  S
H1602      C2358   1.079       .  S
C1603      C1604   1.564       .  S
C1603      C1609   1.544       .  S
C1603      C1607   1.544       .  S
C1603      C1775   1.524       .  S
C1604      H1611   1.085       .  S
C1604      C1605   1.380       .  D
C1605      C1606   1.534       .  S
C1605      C1865   1.519       .  S
C1606      C1610   1.524       .  S
C1606      C1608   1.528       .  S
C1606      H1612   1.096       .  S
C1607      H1613   1.087       .  S
C1607      C1608   1.355       .  D
C1608      C1868   1.486       .  S
C1609      H1614   1.086       .  S
C1609      C1610   1.371       .  D
C1610      C1880   1.472       .  S
C1615      C1616   1.553       .  S
C1615      C1621   1.570       .  S
C1615      C1619   1.516       .  S
C1615      C1807   1.534       .  S
C1616      H1623   1.085       .  S
C1616      C1617   1.376       .  D
C1617      C1618   1.531       .  S
C1617      C1893   1.481       .  S
C1618      C1622   1.538       .  S
C1618      C1620   1.550       .  S
C1618      H1624   1.110       .  S
C1619      H1625   1.088       .  S
C1619      C1620   1.332       .  D
C1620      C1876   1.451       .  S
C1621      H1626   1.085       .  S
C1621      C1622   1.391       .  D
C1622      C1860   1.530       .  S
C1627      C1848   1.507       .  S
C1627      C1629   1.541       .  S
C1627      C1631   1.544       .  S
C1627      C1630   1.517       .  S
C1628      C1869   1.518       .  S
C1628      C1632   1.538       .  S
C1628      C1634   1.537       .  S
C1628      C1633   1.525       .  S
C1629      C1637   1.405       .  A
C1629      C1632   1.412       .  A
C1630      C1633   1.397       .  A
C1631      C1645   1.392       .  A
C1631      C1634   1.411       .  A
C1632      C1635   1.383       .  A
C1634      C1642   1.400       .  A
C1635      N1636   1.340       .  A
C1635      H1648   1.083       .  S
N1636      C1637   1.355       .  A
N1636      C1857   1.447       .  S
C1637      H1638   1.081       .  S
C1639      N1640   1.348       .  A
C1639      H1649   1.082       .  S
N1640      C1641   1.349       .  A
C1641      H1647   1.079       .  S
C1642      N1643   1.352       .  A
C1642      H1644   1.081       .  S
N1643      C1645   1.342       .  A
N1643      C1853   1.449       .  S
C1645      H1646   1.081       .  S
C1650      C1651   1.531       .  S
C1650      C1656   1.552       .  S
C1650      C1654   1.592       .  S
C1650      C1817   1.553       .  S
C1651      H1658   1.087       .  S
C1651      C1652   1.352       .  D
C1652      C1653   1.518       .  S
C1652      C1840   1.451       .  S
C1653      C1657   1.510       .  S
C1653      C1655   1.511       .  S
C1653      H1659   1.103       .  S
C1654      H1660   1.085       .  S
C1654      C1655   1.405       .  D
C1655      C1844   1.529       .  S
C1656      H1661   1.086       .  S
C1656      C1657   1.367       .  D
C1657      C1856   1.472       .  S
C1662      C1663   1.523       .  S
C1662      C1668   1.555       .  S
C1662      C1666   1.599       .  S
C1662      C1782   1.572       .  S
C1663      H1670   1.087       .  S
C1663      C1664   1.347       .  D
C1664      C1665   1.537       .  S
C1664      C1837   1.459       .  S
C1665      C1669   1.524       .  S
C1665      C1667   1.517       .  S
C1665      H1671   1.108       .  S
C1666      H1672   1.085       .  S
C1666      C1667   1.409       .  D
C1667      C1873   1.541       .  S
C1668      H1673   1.085       .  S
C1668      C1669   1.375       .  D
C1669      C1852   1.488       .  S
C1674      C1889   1.551       .  S
C1674      C1676   1.520       .  S
C1674      C1678   1.520       .  S
C1674      C1677   1.532       .  S
C1675      C1845   1.563       .  S
C1675      C1679   1.526       .  S
C1675      C1681   1.536       .  S
C1675      C1680   1.526       .  S
C1676      C1684   1.359       .  A
C1676      C1679   1.417       .  A
C1677      C2454   1.384       .  A
C1677      C1680   1.428       .  A
C1678      C1692   1.364       .  A
C1678      C1681   1.423       .  A
C1679      C1682   1.367       .  A
C1680      C2452   1.352       .  A
C1681      C1689   1.367       .  A
C1682      N1683   1.334       .  A
C1682      H1695   1.078       .  S
N1683      C1684   1.352       .  A
N1683      C1832   1.415       .  S
C1684      H1685   1.082       .  S
C1686      C2446   1.352       .  A
C1686      N1687   1.332   1_565  A
C1686      H1696   1.080       .  S
N1687      C1688   1.349   1_545  A
N1687      N2359   1.390       .  S
C1688      C2443   1.385       .  A
C1688      H1694   1.082   1_565  S
C1689      N1690   1.353       .  A
C1689      H1691   1.083       .  S
N1690      C1692   1.332       .  A
N1690      C1828   1.411       .  S
C1692      H1693   1.083       .  S
C1697      C1698   1.517       .  S
C1697      C1703   1.559       .  S
C1697      C1701   1.573       .  S
C1697      C1767   1.540       .  S
C1698      H1705   1.086       .  S
C1698      C1699   1.318       .  D
C1699      C1700   1.542       .  S
C1699      C1833   1.450       .  S
C1700      C1704   1.537       .  S
C1700      C1702   1.520       .  S
C1700      H1706   1.103       .  S
C1701      H2090   1.085       .  S
C1701      C1702   1.385       .  D
C1702      C1824   1.511       .  S
C1703      H1708   1.085       .  S
C1703      C1704   1.389       .  D
C1704      C1896   1.499       .  S
H1707      C2084   1.085       .  S
C1709      C1710   1.587       .  S
C1709      C1715   1.524       .  S
C1709      C1713   1.545       .  S
C1709      C1803   1.530       .  S
C1710      H1717   1.084       .  S
C1710      C1711   1.399       .  D
C1711      C1712   1.532       .  S
C1711      C1820   1.545       .  S
C1712      C1716   1.524       .  S
C1712      C1714   1.537       .  S
C1712      H1718   1.098       .  S
C1713      H1719   1.085       .  S
C1713      C1714   1.356       .  D
C1714      C1849   1.486       .  S
C1715      H1720   1.086       .  S
C1715      C1716   1.338       .  D
C1716      C1829   1.438       .  S
C1721      C1864   1.545       .  S
C1721      C1723   1.539       .  S
C1721      C1725   1.507       .  S
C1721      C1724   1.535       .  S
C1722      C1825   1.556       .  S
C1722      C1726   1.526       .  S
C1722      C1728   1.543       .  S
C1722      C1727   1.519       .  S
C1723      C1731   1.366       .  A
C1723      C1726   1.424       .  A
C1724      C2118   1.378   1_554  A
C1724      C1727   1.430       .  A
C1725      C1739   1.359       .  A
C1725      C1728   1.399       .  A
C1726      C1729   1.377       .  A
C1727      C2116   1.352   1_554  A
C1728      C1736   1.373       .  A
C1729      N1730   1.343       .  A
C1729      H1742   1.083       .  S
N1730      C1731   1.337       .  A
N1730      C1841   1.415       .  S
C1731      H1732   1.081       .  S
C1733      C2110   1.355       .  A
C1733      N1734   1.328       .  A
C1733      H1743   1.079       .  S
N1734      C1735   1.347       .  A
N1734      N1757   1.381       .  S
C1735      C2107   1.372       .  A
C1735      H1741   1.083       .  S
C1736      N1737   1.361       .  A
C1736      H1738   1.082       .  S
N1737      C1739   1.346       .  A
N1737      C1905   1.418       .  S
C1739      H1740   1.083       .  S
C1744      C1821   1.571       .  S
C1744      C1746   1.514       .  S
C1744      C1748   1.543       .  S
C1744      C1747   1.539       .  S
C1745      C1861   1.576       .  S
C1745      C1749   1.548       .  S
C1745      C1751   1.542       .  S
C1745      C1750   1.529       .  S
C1746      C1754   1.369       .  A
C1746      C1749   1.420       .  A
C1747      C1758   1.373       .  A
C1747      C1750   1.431       .  A
C1748      C1762   1.380       .  A
C1748      C1751   1.426       .  A
C1749      C1752   1.385       .  A
C1750      C1756   1.354       .  A
C1751      C1759   1.392       .  A
C1752      N1753   1.354       .  A
C1752      H1765   1.080       .  S
N1753      C1754   1.339       .  A
N1753      C1836   1.430       .  S
C1754      H1755   1.082       .  S
C1756      N1757   1.328       .  A
C1756      H1766   1.078       .  S
N1757      C1758   1.346       .  A
C1758      H1764   1.081       .  S
C1759      N1760   1.349       .  A
C1759      H1761   1.082       .  S
N1760      C1762   1.341       .  A
N1760      C1885   1.432       .  S
C1762      H1763   1.080       .  S
C1767      N1785   1.354       .  A
C1767      C1804   1.475       .  S
N1768      N1785   1.338       .  A
N1768      N1790   1.315       .  A
C1769      N1794   1.352       .  A
C1769      H1814   1.081       .  S
C1769      C1807   1.469       .  S
H1770      C1811   1.081       .  S
C1771      N1795   1.355       .  A
C1771      H1800   1.081       .  S
C1771      C1775   1.472       .  S
Co1772     N2939   2.087   1_545  S
Co1772     N2163   2.094       .  S
Co1772     N2578   2.114   1_545  S
Co1772     N1788   2.099       .  S
Co1772    Cl1816   2.470       .  S
N1773      C1811   1.360       .  A
N1773      N1780   1.330       .  A
N1773     Co2157   2.208   1_554  S
Co1774     N2156   2.220       .  S
Co1774     N1794   2.086       .  S
Co1774    Cl1816   2.471       .  S
C1775      N1813   1.346       .  A
N1776      N1783   1.332       .  A
N1776      N1806   1.337       .  A
N1776     Co2958   2.113   1_554  S
N1777      N1795   1.321       .  A
N1777      N1813   1.323       .  A
N1778      C1807   1.361       .  A
N1778      N1788   1.326       .  A
H1779      C1804   1.082       .  S
N1780      N1801   1.334       .  A
N1780     Co2155   2.117   1_554  S
N1781      N1799   1.331       .  A
N1781      N1786   1.342       .  A
C1782      N1786   1.380       .  A
C1782      C1810   1.480       .  S
N1783      C1798   1.354       .  A
N1783     Co2188   2.193   1_654  S
C1784      N1812   1.350       .  A
C1784      H1818   1.081       .  S
C1784      C1787   1.466       .  S
C1787      N1808   1.370       .  A
N1788      N1794   1.315       .  A
N1789      C1815   1.342       .  A
N1789      N1791   1.316       .  A
N1789     Co1805   2.041   1_655  S
N1790      C1804   1.333       .  A
N1790     Co2921   2.094   1_554  S
N1791      N1819   1.331       .  A
N1791     Co2575   2.122       .  S
H1792      C1815   1.082       .  S
H1793      C1810   1.082       .  S
N1795     Co2192   2.119   1_554  S
N1796      N1808   1.338       .  A
N1796      N1812   1.328       .  A
C1797      N1801   1.359       .  A
C1797      C1811   1.499       .  S
C1798      H1802   1.081       .  S
C1798      C1817   1.486       .  S
N1799      C1810   1.355       .  A
N1799     Co1809   2.142       .  S
C1803      N1819   1.366       .  A
C1803      C1815   1.457       .  S
Co1805     N2166   2.182   1_455  S
N1806      C1817   1.357       .  A
Co1809     N2925   2.113   1_545  S
Co1809     N2557   2.119   1_545  S
Co1809     N2178   2.118       .  S
N1812     Co2538   2.114       .  S
C1820      H1822   1.083       .  S
C1820      C1821   1.383       .  D
C1821      H1823   1.073       .  S
C1824      H1826   1.082       .  S
C1824      C1825   1.375       .  D
C1825      H1827   1.081       .  S
C1828      H1830   1.084       .  S
C1828      C1829   1.326       .  D
C1829      H1831   1.087       .  S
C1832      H1834   1.088       .  S
C1832      C1833   1.313       .  D
C1833      H1835   1.086       .  S
C1836      H1838   1.089       .  S
C1836      C1837   1.325       .  D
C1837      H1839   1.085       .  S
C1840      H1842   1.085       .  S
C1840      C1841   1.344       .  D
C1841      H1843   1.076       .  S
C1844      H1846   1.082       .  S
C1844      C1845   1.395       .  D
C1845      H1847   1.079       .  S
C1848      H1850   1.083       .  S
C1848      C1849   1.337       .  D
C1849      H1851   1.085       .  S
C1852      H1854   1.084       .  S
C1852      C1853   1.359       .  D
C1853      H1855   1.085       .  S
C1856      H1858   1.085       .  S
C1856      C1857   1.338       .  D
C1857      H1859   1.090       .  S
C1860      H1862   1.082       .  S
C1860      C1861   1.380       .  D
C1861      H1863   1.084       .  S
C1864      H1866   1.076       .  S
C1864      C1865   1.360       .  D
C1865      H1867   1.085       .  S
C1868      H1870   1.085       .  S
C1868      C1869   1.339       .  D
C1869      H1871   1.088       .  S
C1872      H1874   1.079       .  S
C1872      C1873   1.393       .  D
C1873      H1875   1.082       .  S
C1876      H1878   1.083       .  S
C1876      C1877   1.328       .  D
C1877      H1879   1.089       .  S
C1880      H1882   1.087       .  S
C1880      C1881   1.349       .  D
C1881      H1883   1.085       .  S
C1884      H1886   1.087       .  S
C1884      C1885   1.351       .  D
C1885      H1887   1.077       .  S
C1888      H1890   1.085       .  S
C1888      C1889   1.371       .  D
C1889      H1891   1.085       .  S
C1892      H1894   1.087       .  S
C1892      C1893   1.345       .  D
C1893      H1895   1.085       .  S
C1896      H1898   1.086       .  S
C1896      C1897   1.359       .  D
C1897      H1899   1.076       .  S
C1900      H1902   1.087       .  S
C1900      C1901   1.344       .  D
C1901      H1903   1.085       .  S
C1904      H1906   1.087       .  S
C1904      C1905   1.327       .  D
C1905      H1907   1.087       .  S
C1908      H1910   1.082       .  S
C1908      C1909   1.379       .  D
C1909      H1911   1.086       .  S
C1912      H1914   1.083       .  S
C1912      C1913   1.357       .  D
C1913      H1915   1.086       .  S
C1916      C1917   1.597       .  S
C1916      C1922   1.542       .  S
C1916      C1920   1.535       .  S
C1916      C2180   1.567       .  S
C1917      H1924   1.085       .  S
C1917      C1918   1.408       .  D
C1918      C1919   1.529       .  S
C1918      C2291   1.553       .  S
C1919      C1923   1.526       .  S
C1919      C1921   1.522       .  S
C1919      H1925   1.105       .  S
C1920      H1926   1.086       .  S
C1920      C1921   1.356       .  D
C1921      C2296   1.465       .  S
C1922      H1927   1.086       .  S
C1922      C1923   1.365       .  D
C1923      C2287   1.472       .  S
C1928      C2295   1.512       .  S
C1928      C1930   1.535       .  S
C1928      C1932   1.535       .  S
C1928      C1931   1.530       .  S
C1929      C2283   1.534       .  S
C1929      C1933   1.538       .  S
C1929      C1935   1.539       .  S
C1929      C1934   1.518       .  S
C1930      C1938   1.390       .  A
C1930      C1933   1.411       .  A
C1931      C1942   1.372       .  A
C1931      C1934   1.407       .  A
C1932      C1946   1.389       .  A
C1932      C1935   1.413       .  A
C1933      C1936   1.388       .  A
C1934      C1940   1.355       .  A
C1935      C1943   1.392       .  A
C1936      N1937   1.345       .  A
C1936      H1949   1.082       .  S
N1937      C1938   1.350       .  A
N1937      C2280   1.442       .  S
C1938      H1939   1.082       .  S
C1943      N1944   1.347       .  A
C1943      H1945   1.082       .  S
N1944      C1946   1.343       .  A
N1944      C2275   1.434       .  S
C1946      H1947   1.081       .  S
C1951      C1952   1.589       .  S
C1951      C1957   1.539       .  S
C1951      C1955   1.555       .  S
C1951      C2170   1.567       .  S
C1952      H1959   1.085       .  S
C1952      C1953   1.395       .  D
C1953      C1954   1.524       .  S
C1953      C2271   1.538       .  S
C1954      C1958   1.524       .  S
C1954      C1956   1.520       .  S
C1954      H1960   1.110       .  S
C1955      H1961   1.085       .  S
C1955      C1956   1.374       .  D
C1956      C2284   1.479       .  S
C1957      H1962   1.086       .  S
C1957      C1958   1.362       .  D
C1958      C2267   1.465       .  S
C1963      C2292   1.577       .  S
C1963      C1965   1.520       .  S
C1963      C1967   1.538       .  S
C1963      C1966   1.535       .  S
C1964      C2255   1.571       .  S
C1964      C1968   1.524       .  S
C1964      C1970   1.530       .  S
C1964      C1969   1.539       .  S
C1965      C1973   1.361       .  A
C1965      C1968   1.412       .  A
C1966      C1977   1.382       .  A
C1966      C1969   1.440       .  A
C1967      C1981   1.373       .  A
C1967      C1970   1.426       .  A
C1968      C1971   1.371       .  A
C1969      C1975   1.352       .  A
C1970      C1978   1.373       .  A
C1971      N1972   1.342       .  A
C1971      H1984   1.081       .  S
N1972      C1973   1.351       .  A
N1972      C2260   1.421       .  S
C1973      H1974   1.081       .  S
C1975      N2742   1.328       .  A
C1975      H2751   1.078       .  S
N1976      C2741   1.350       .  A
N1976      C2743   1.314       .  A
N1976      N2836   1.384       .  S
C1977      N2742   1.347       .  A
C1977      H2749   1.082       .  S
C1978      N1979   1.342       .  A
C1978      H1980   1.079       .  S
N1979      C1981   1.343       .  A
N1979      C2264   1.417       .  S
C1981      H1982   1.075       .  S
H1983      C2743   1.078       .  S
H1985      C2741   1.083       .  S
C1986      C1987   1.564       .  S
C1986      C1992   1.543       .  S
C1986      C1990   1.554       .  S
C1986      C2158   1.542       .  S
C1987      H1994   1.085       .  S
C1987      C1988   1.382       .  D
C1988      C1989   1.526       .  S
C1988      C2248   1.509       .  S
C1989      C1993   1.528       .  S
C1989      C1991   1.520       .  S
C1989      H1995   1.102       .  S
C1990      H1996   1.086       .  S
C1990      C1991   1.366       .  D
C1991      C2251   1.484       .  S
C1992      H1997   1.086       .  S
C1992      C1993   1.368       .  D
C1993      C2263   1.476       .  S
C1998      C1999   1.556       .  S
C1998      C2004   1.584       .  S
C1998      C2002   1.516       .  S
C1998      C2190   1.549       .  S
C1999      H2006   1.085       .  S
C1999      C2000   1.379       .  D
C2000      C2001   1.535       .  S
C2000      C2276   1.492       .  S
C2001      C2005   1.538       .  S
C2001      C2003   1.538       .  S
C2001      H2007   1.106       .  S
C2002      H2008   1.088       .  S
C2002      C2003   1.326       .  D
C2003      C2259   1.445       .  S
C2004      H2009   1.085       .  S
C2004      C2005   1.399       .  D
C2005      C2243   1.547       .  S
C2010      C2231   1.520       .  S
C2010      C2012   1.543       .  S
C2010      C2014   1.531       .  S
C2010      C2013   1.532       .  S
C2011      C2252   1.521       .  S
C2011      C2015   1.530       .  S
C2011      C2017   1.536       .  S
C2011      C2016   1.524       .  S
C2012      C2020   1.386       .  A
C2012      C2015   1.419       .  A
C2013      C2016   1.418       .  A
C2014      C2028   1.389       .  A
C2014      C2017   1.391       .  A
C2015      C2018   1.383       .  A
C2017      C2025   1.383       .  A
C2018      N2019   1.345       .  A
C2018      H2031   1.080       .  S
N2019      C2020   1.348       .  A
N2019      C2240   1.433       .  S
C2020      H2021   1.083       .  S
C2022      N2023   1.355       .  A
C2022      H2032   1.080       .  S
N2023      C2024   1.350       .  A
C2024      H2030   1.079       .  S
C2025      N2026   1.351       .  A
C2025      H2027   1.082       .  S
N2026      C2028   1.357       .  A
N2026      C2236   1.442       .  S
C2028      H2029   1.082       .  S
C2033      C2034   1.519       .  S
C2033      C2039   1.548       .  S
C2033      C2037   1.584       .  S
C2033      C2200   1.548       .  S
C2034      H2041   1.088       .  S
C2034      C2035   1.342       .  D
C2035      C2036   1.545       .  S
C2035      C2223   1.459       .  S
C2036      C2040   1.528       .  S
C2036      C2038   1.530       .  S
C2036      H2042   1.106       .  S
C2037      H2043   1.085       .  S
C2037      C2038   1.401       .  D
C2038      C2227   1.542       .  S
C2039      H2044   1.086       .  S
C2039      C2040   1.371       .  D
C2040      C2239   1.477       .  S
C2045      C2046   1.523       .  S
C2045      C2051   1.556       .  S
C2045      C2049   1.581       .  S
C2045      C2165   1.544       .  S
C2046      H2053   1.087       .  S
C2046      C2047   1.345       .  D
C2047      C2048   1.537       .  S
C2047      C2220   1.453       .  S
C2048      C2052   1.519       .  S
C2048      C2050   1.521       .  S
C2048      H2054   1.108       .  S
C2049      H2055   1.085       .  S
C2049      C2050   1.398       .  D
C2050      C2256   1.527       .  S
C2051      H2056   1.086       .  S
C2051      C2052   1.371       .  D
C2052      C2235   1.481       .  S
C2057      C2272   1.572       .  S
C2057      C2059   1.536       .  S
C2057      C2061   1.511       .  S
C2057      C2060   1.544       .  S
C2058      C2228   1.574       .  S
C2058      C2062   1.544       .  S
C2058      C2064   1.526       .  S
C2058      C2063   1.529       .  S
C2059      C2067   1.370       .  A
C2059      C2062   1.430       .  A
C2060      C2837   1.376       .  A
C2060      C2063   1.442       .  A
C2061      C2075   1.352       .  A
C2061      C2064   1.393       .  A
C2062      C2065   1.383       .  A
C2063      C2835   1.350       .  A
C2064      C2072   1.369       .  A
C2065      N2066   1.353       .  A
C2065      H2078   1.084       .  S
N2066      C2067   1.335       .  A
N2066      C2215   1.423       .  S
C2067      H2068   1.083       .  S
C2069      C2829   1.350       .  A
C2069      N2070   1.329   1_565  A
C2069      H2079   1.080       .  S
N2070      C2071   1.348   1_545  A
N2070      N2742   1.388       .  S
C2071      C2826   1.382       .  A
C2071      H2077   1.083   1_565  S
C2072      N2073   1.351       .  A
C2072      H2074   1.082       .  S
N2073      C2075   1.354       .  A
N2073      C2211   1.417       .  S
C2075      H2076   1.082       .  S
C2080      C2081   1.549       .  S
C2080      C2086   1.557       .  S
C2080      C2084   1.561       .  S
C2080      C2150   1.543       .  S
C2081      H2088   1.086       .  S
C2081      C2082   1.381       .  D
C2082      C2083   1.528       .  S
C2082      C2216   1.478       .  S
C2083      C2087   1.503       .  S
C2083      C2085   1.517       .  S
C2083      H2089   1.095       .  S
C2084      C2085   1.383       .  D
C2085      C2207   1.499       .  S
C2086      H2091   1.085       .  S
C2086      C2087   1.346       .  D
C2087      C2279   1.469       .  S
C2092      C2093   1.560       .  S
C2092      C2098   1.519       .  S
C2092      C2096   1.556       .  S
C2092      C2186   1.528       .  S
C2093      H2100   1.085       .  S
C2093      C2094   1.385       .  D
C2094      C2095   1.531       .  S
C2094      C2203   1.510       .  S
C2095      C2099   1.530       .  S
C2095      C2097   1.531       .  S
C2095      H2101   1.106       .  S
C2096      H2102   1.085       .  S
C2096      C2097   1.377       .  D
C2097      C2232   1.490       .  S
C2098      H2103   1.088       .  S
C2098      C2099   1.338       .  D
C2099      C2212   1.440       .  S
C2104      C2247   1.533       .  S
C2104      C2106   1.526       .  S
C2104      C2108   1.544       .  S
C2104      C2107   1.529       .  S
C2105      C2208   1.524       .  S
C2105      C2109   1.516       .  S
C2105      C2111   1.528       .  S
C2105      C2110   1.529       .  S
C2106      C2114   1.376       .  A
C2106      C2109   1.395       .  A
C2107      C2110   1.424       .  A
C2108      C2122   1.385       .  A
C2108      C2111   1.424       .  A
C2109      C2112   1.370       .  A
C2111      C2119   1.376       .  A
C2112      N2113   1.341       .  A
C2112      H2125   1.081       .  S
N2113      C2114   1.356       .  A
N2113      C2224   1.428       .  S
C2114      H2115   1.082       .  S
C2116      N2117   1.327       .  A
C2116      H2126   1.082       .  S
N2117      C2118   1.344       .  A
N2117      N2140   1.378       .  S
C2118      H2124   1.082       .  S
C2119      N2120   1.343       .  A
C2119      H2121   1.084       .  S
N2120      C2122   1.346       .  A
N2120      C2288   1.427       .  S
C2122      H2123   1.083       .  S
C2127      C2204   1.561       .  S
C2127      C2129   1.528       .  S
C2127      C2131   1.521       .  S
C2127      C2130   1.534       .  S
C2128      C2244   1.574       .  S
C2128      C2132   1.538       .  S
C2128      C2134   1.542       .  S
C2128      C2133   1.533       .  S
C2129      C2137   1.373       .  A
C2129      C2132   1.426       .  A
C2130      C2141   1.358       .  A
C2130      C2133   1.432       .  A
C2131      C2145   1.373       .  A
C2131      C2134   1.422       .  A
C2132      C2135   1.379       .  A
C2133      C2139   1.379       .  A
C2134      C2142   1.385       .  A
C2135      N2136   1.350       .  A
C2135      H2148   1.081       .  S
N2136      C2137   1.338       .  A
N2136      C2219   1.428       .  S
C2137      H2138   1.080       .  S
C2139      N2140   1.344       .  A
C2139      H2149   1.081       .  S
N2140      C2141   1.329       .  A
C2141      H2147   1.079       .  S
C2142      N2143   1.345       .  A
C2142      H2144   1.078       .  S
N2143      C2145   1.339       .  A
N2143      C2268   1.423       .  S
C2145      H2146   1.083       .  S
C2150      N2168   1.335       .  A
C2150      C2187   1.498       .  S
N2151      N2168   1.311       .  A
N2151      N2173   1.313       .  A
C2152      N2177   1.357       .  A
C2152      H2197   1.081       .  S
C2152      C2190   1.475       .  S
H2153      C2194   1.081       .  S
C2154      N2178   1.356       .  A
C2154      H2183   1.081       .  S
C2154      C2158   1.474       .  S
Co2155     N2556   2.103   1_545  S
Co2155     N2961   2.096   1_545  S
Co2155     N2171   2.110       .  S
Co2155    Cl2199   2.467       .  S
N2156      C2194   1.361       .  A
N2156      N2163   1.330       .  A
Co2157     N2177   2.088       .  S
Co2157    Cl2199   2.474       .  S
C2158      N2196   1.352       .  A
N2159      N2166   1.328       .  A
N2159      N2189   1.332       .  A
N2159     Co2575   2.113       .  S
N2160      N2178   1.317       .  A
N2160      N2196   1.330       .  A
N2161      C2190   1.363       .  A
N2161      N2171   1.328       .  A
H2162      C2187   1.081       .  S
N2163      N2184   1.335       .  A
N2164      N2182   1.329       .  A
N2164      N2169   1.333       .  A
C2165      N2169   1.369       .  A
C2165      C2193   1.478       .  S
N2166      C2181   1.354       .  A
C2167      N2195   1.348       .  A
C2167      H2201   1.081       .  S
C2167      C2170   1.466       .  S
C2170      N2191   1.381       .  A
N2171      N2177   1.313       .  A
N2172      C2198   1.348       .  A
N2172      N2174   1.321       .  A
N2172     Co2188   2.068   1_655  S
N2173      C2187   1.371       .  A
N2173     Co2538   2.155       .  S
N2174      N2202   1.327       .  A
N2174     Co2958   2.127       .  S
H2175      C2198   1.082       .  S
H2176      C2193   1.081       .  S
N2179      N2191   1.344       .  A
N2179      N2195   1.331       .  A
C2180      N2184   1.351       .  A
C2180      C2194   1.504       .  S
C2181      H2185   1.082       .  S
C2181      C2200   1.496       .  S
N2182      C2193   1.352       .  A
N2182     Co2192   2.131       .  S
C2186      N2202   1.361       .  A
C2186      C2198   1.459       .  S
N2189      C2200   1.359       .  A
Co2192     N2542   2.137   1_546  S
Co2192     N2940   2.139   1_545  S
N2195     Co2921   2.110       .  S
C2203      H2205   1.081       .  S
C2203      C2204   1.370       .  D
C2204      H2206   1.082       .  S
C2207      H2209   1.083       .  S
C2207      C2208   1.371       .  D
C2208      H2210   1.072       .  S
C2211      H2213   1.089       .  S
C2211      C2212   1.329       .  D
C2212      H2214   1.086       .  S
C2215      H2217   1.077       .  S
C2215      C2216   1.355       .  D
C2216      H2218   1.085       .  S
C2219      H2221   1.089       .  S
C2219      C2220   1.326       .  D
C2220      H2222   1.084       .  S
C2223      H2225   1.084       .  S
C2223      C2224   1.324       .  D
C2224      H2226   1.089       .  S
C2227      H2229   1.085       .  S
C2227      C2228   1.392       .  D
C2228      H2230   1.082       .  S
C2231      H2233   1.085       .  S
C2231      C2232   1.355       .  D
C2232      H2234   1.081       .  S
C2235      H2237   1.085       .  S
C2235      C2236   1.346       .  D
C2236      H2238   1.088       .  S
C2239      H2241   1.086       .  S
C2239      C2240   1.349       .  D
C2240      H2242   1.081       .  S
C2243      H2245   1.082       .  S
C2243      C2244   1.383       .  D
C2244      H2246   1.082       .  S
C2247      H2249   1.086       .  S
C2247      C2248   1.361       .  D
C2248      H2250   1.085       .  S
C2251      H2253   1.085       .  S
C2251      C2252   1.347       .  D
C2252      H2254   1.085       .  S
C2255      H2257   1.083       .  S
C2255      C2256   1.386       .  D
C2256      H2258   1.082       .  S
C2259      H2261   1.083       .  S
C2259      C2260   1.324       .  D
C2260      H2262   1.089       .  S
C2263      H2265   1.087       .  S
C2263      C2264   1.346       .  D
C2264      H2266   1.080       .  S
C2267      H2269   1.086       .  S
C2267      C2268   1.344       .  D
C2268      H2270   1.082       .  S
C2271      H2273   1.084       .  S
C2271      C2272   1.375       .  D
C2272      H2274   1.087       .  S
C2275      H2277   1.078       .  S
C2275      C2276   1.351       .  D
C2276      H2278   1.086       .  S
C2279      H2281   1.084       .  S
C2279      C2280   1.340       .  D
C2280      H2282   1.089       .  S
C2283      H2285   1.086       .  S
C2283      C2284   1.345       .  D
C2284      H2286   1.082       .  S
C2287      H2289   1.086       .  S
C2287      C2288   1.346       .  D
C2288      H2290   1.078       .  S
C2291      H2293   1.084       .  S
C2291      C2292   1.387       .  D
C2292      H2294   1.081       .  S
C2295      H2297   1.088       .  S
C2295      C2296   1.344       .  D
C2296      H2298   1.081       .  S
C2299      C2300   1.578       .  S
C2299      C2305   1.527       .  S
C2299      C2303   1.553       .  S
C2299      C2563   1.556       .  S
C2300      H2307   1.085       .  S
C2300      C2301   1.393       .  D
C2301      C2302   1.536       .  S
C2301      C2674   1.539       .  S
C2302      C2306   1.533       .  S
C2302      C2304   1.531       .  S
C2302      H2308   1.108       .  S
C2303      H2309   1.086       .  S
C2303      C2304   1.377       .  D
C2304      C2679   1.492       .  S
C2305      H2310   1.087       .  S
C2305      C2306   1.354       .  D
C2306      C2670   1.459       .  S
C2311      C2678   1.525       .  S
C2311      C2313   1.547       .  S
C2311      C2315   1.535       .  S
C2311      C2314   1.529       .  S
C2312      C2666   1.519       .  S
C2312      C2316   1.537       .  S
C2312      C2318   1.532       .  S
C2312      C2317   1.522       .  S
C2313      C2321   1.393       .  A
C2313      C2316   1.421       .  A
C2314      C2325   1.365       .  A
C2314      C2317   1.416       .  A
C2315      C2329   1.384       .  A
C2315      C2318   1.382       .  A
C2316      C2319   1.380       .  A
C2317      C2323   1.359       .  A
C2318      C2326   1.380       .  A
C2319      N2320   1.342       .  A
C2319      H2332   1.081       .  S
N2320      C2321   1.352       .  A
N2320      C2663   1.434       .  S
C2321      H2322   1.083       .  S
C2326      N2327   1.356       .  A
C2326      H2328   1.082       .  S
N2327      C2329   1.359       .  A
N2327      C2658   1.441       .  S
C2329      H2330   1.082       .  S
C2334      C2335   1.575       .  S
C2334      C2340   1.545       .  S
C2334      C2338   1.548       .  S
C2334      C2553   1.565       .  S
C2335      H2342   1.085       .  S
C2335      C2336   1.389       .  D
C2336      C2337   1.529       .  S
C2336      C2654   1.527       .  S
C2337      C2341   1.532       .  S
C2337      C2339   1.527       .  S
C2337      H2343   1.106       .  S
C2338      H2344   1.086       .  S
C2338      C2339   1.370       .  D
C2339      C2667   1.478       .  S
C2340      H2345   1.086       .  S
C2340      C2341   1.371       .  D
C2341      C2650   1.484       .  S
C2346      C2675   1.574       .  S
C2346      C2348   1.512       .  S
C2346      C2350   1.536       .  S
C2346      C2349   1.542       .  S
C2347      C2638   1.576       .  S
C2347      C2351   1.526       .  S
C2347      C2353   1.534       .  S
C2347      C2352   1.536       .  S
C2348      C2356   1.359       .  A
C2348      C2351   1.412       .  A
C2349      C2360   1.383       .  A
C2349      C2352   1.434       .  A
C2350      C2364   1.372       .  A
C2350      C2353   1.432       .  A
C2351      C2354   1.374       .  A
C2352      C2358   1.344       .  A
C2353      C2361   1.374       .  A
C2354      N2355   1.343       .  A
C2354      H2367   1.081       .  S
N2355      C2356   1.350       .  A
N2355      C2643   1.422       .  S
C2356      H2357   1.081       .  S
C2361      N2362   1.345       .  A
C2361      H2363   1.081       .  S
N2362      C2364   1.339       .  A
N2362      C2647   1.420       .  S
C2364      H2365   1.083       .  S
C2369      C2370   1.569       .  S
C2369      C2375   1.548       .  S
C2369      C2373   1.557       .  S
C2369      C2541   1.546       .  S
C2370      H2377   1.085       .  S
C2370      C2371   1.384       .  D
C2371      C2372   1.519       .  S
C2371      C2631   1.512       .  S
C2372      C2376   1.517       .  S
C2372      C2374   1.515       .  S
C2372      H2378   1.095       .  S
C2373      H2379   1.086       .  S
C2373      C2374   1.367       .  D
C2374      C2634   1.492       .  S
C2375      H2380   1.085       .  S
C2375      C2376   1.370       .  D
C2376      C2646   1.470       .  S
C2381      C2382   1.556       .  S
C2381      C2387   1.573       .  S
C2381      C2385   1.513       .  S
C2381      C2573   1.546       .  S
C2382      H2389   1.085       .  S
C2382      C2383   1.378       .  D
C2383      C2384   1.529       .  S
C2383      C2659   1.481       .  S
C2384      C2388   1.536       .  S
C2384      C2386   1.549       .  S
C2384      H2390   1.110       .  S
C2385      H2391   1.088       .  S
C2385      C2386   1.332       .  D
C2386      C2642   1.452       .  S
C2387      H2392   1.085       .  S
C2387      C2388   1.397       .  D
C2388      C2626   1.534       .  S
C2393      C2614   1.511       .  S
C2393      C2395   1.536       .  S
C2393      C2397   1.529       .  S
C2393      C2396   1.531       .  S
C2394      C2635   1.529       .  S
C2394      C2398   1.547       .  S
C2394      C2400   1.552       .  S
C2394      C2399   1.515       .  S
C2395      C2403   1.387       .  A
C2395      C2398   1.411       .  A
C2396      C2399   1.406       .  A
C2397      C2411   1.385       .  A
C2397      C2400   1.412       .  A
C2398      C2401   1.397       .  A
C2400      C2408   1.402       .  A
C2401      N2402   1.351       .  A
C2401      H2414   1.083       .  S
N2402      C2403   1.346       .  A
N2402      C2623   1.442       .  S
C2403      H2404   1.081       .  S
C2405      N2406   1.340       .  A
C2405      H2415   1.082       .  S
N2406      C2407   1.347       .  A
C2407      H2413   1.079       .  S
C2408      N2409   1.355       .  A
C2408      H2410   1.081       .  S
N2409      C2411   1.343       .  A
N2409      C2619   1.447       .  S
C2411      H2412   1.082       .  S
C2416      C2417   1.543       .  S
C2416      C2422   1.536       .  S
C2416      C2420   1.581       .  S
C2416      C2583   1.565       .  S
C2417      H2424   1.086       .  S
C2417      C2418   1.367       .  D
C2418      C2419   1.524       .  S
C2418      C2606   1.470       .  S
C2419      C2423   1.524       .  S
C2419      C2421   1.525       .  S
C2419      H2425   1.094       .  S
C2420      H2426   1.085       .  S
C2420      C2421   1.402       .  D
C2421      C2610   1.530       .  S
C2422      H2427   1.087       .  S
C2422      C2423   1.363       .  D
C2423      C2622   1.482       .  S
C2428      C2429   1.521       .  S
C2428      C2434   1.555       .  S
C2428      C2432   1.599       .  S
C2428      C2548   1.564       .  S
C2429      H2436   1.088       .  S
C2429      C2430   1.342       .  D
C2430      C2431   1.537       .  S
C2430      C2603   1.453       .  S
C2431      C2435   1.520       .  S
C2431      C2433   1.515       .  S
C2431      H2437   1.105       .  S
C2432      H2438   1.085       .  S
C2432      C2433   1.409       .  D
C2433      C2639   1.540       .  S
C2434      H2439   1.085       .  S
C2434      C2435   1.372       .  D
C2435      C2618   1.485       .  S
C2440      C2655   1.558       .  S
C2440      C2442   1.526       .  S
C2440      C2444   1.523       .  S
C2440      C2443   1.534       .  S
C2441      C2611   1.566       .  S
C2441      C2445   1.521       .  S
C2441      C2447   1.534       .  S
C2441      C2446   1.524       .  S
C2442      C2450   1.360       .  A
C2442      C2445   1.414       .  A
C2443      C2446   1.428       .  A
C2444      C2458   1.365       .  A
C2444      C2447   1.423       .  A
C2445      C2448   1.364       .  A
C2447      C2455   1.362       .  A
C2448      N2449   1.333       .  A
C2448      H2461   1.080       .  S
N2449      C2450   1.355       .  A
N2449      C2598   1.410       .  S
C2450      H2451   1.082       .  S
C2452      N2453   1.329       .  A
C2452      H2462   1.079       .  S
N2453      C2454   1.346       .  A
C2454      H2460   1.082       .  S
C2455      N2456   1.354       .  A
C2455      H2457   1.083       .  S
N2456      C2458   1.334       .  A
N2456      C2594   1.413       .  S
C2458      H2459   1.083       .  S
C2463      C2464   1.520       .  S
C2463      C2469   1.555       .  S
C2463      C2467   1.582       .  S
C2463      C2533   1.541       .  S
C2464      H2471   1.085       .  S
C2464      C2465   1.322       .  D
C2465      C2466   1.531       .  S
C2465      C2599   1.439       .  S
C2466      C2470   1.530       .  S
C2466      C2468   1.519       .  S
C2466      H2472   1.108       .  S
C2467      H2856   1.085   1_554  S
C2467      C2468   1.394       .  D
C2468      C2590   1.521       .  S
C2469      H2474   1.085       .  S
C2469      C2470   1.378       .  D
C2470      C2662   1.489       .  S
H2473      C2850   1.085       .  S
C2475      C2476   1.590       .  S
C2475      C2481   1.522       .  S
C2475      C2479   1.542       .  S
C2475      C2569   1.534       .  S
C2476      H2483   1.085       .  S
C2476      C2477   1.402       .  D
C2477      C2478   1.526       .  S
C2477      C2586   1.538       .  S
C2478      C2482   1.529       .  S
C2478      C2480   1.532       .  S
C2478      H2484   1.101       .  S
C2479      H2485   1.086       .  S
C2479      C2480   1.359       .  D
C2480      C2615   1.480       .  S
C2481      H2486   1.086       .  S
C2481      C2482   1.333       .  D
C2482      C2595   1.439       .  S
C2487      C2630   1.539       .  S
C2487      C2489   1.530       .  S
C2487      C2491   1.515       .  S
C2487      C2490   1.525       .  S
C2488      C2591   1.558       .  S
C2488      C2492   1.540       .  S
C2488      C2494   1.537       .  S
C2488      C2493   1.533       .  S
C2489      C2497   1.369       .  A
C2489      C2492   1.426       .  A
C2490      C2884   1.357       .  A
C2490      C2493   1.432       .  A
C2491      C2505   1.363       .  A
C2491      C2494   1.398       .  A
C2492      C2495   1.380       .  A
C2493      C2882   1.365       .  A
C2494      C2502   1.376       .  A
C2495      N2496   1.345       .  A
C2495      H2508   1.083       .  S
N2496      C2497   1.336       .  A
N2496      C2607   1.417       .  S
C2497      H2498   1.083       .  S
C2499      C2876   1.345       .  A
C2499      N2500   1.329       .  A
C2499      H2509   1.081       .  S
N2500      C2501   1.336       .  A
N2500      N2523   1.370       .  S
C2501      C2873   1.369       .  A
C2501      H2507   1.082       .  S
C2502      N2503   1.358       .  A
C2502      H2504   1.083       .  S
N2503      C2505   1.346       .  A
N2503      C2671   1.421       .  S
C2505      H2506   1.083       .  S
C2510      C2587   1.567       .  S
C2510      C2512   1.523       .  S
C2510      C2514   1.534       .  S
C2510      C2513   1.536       .  S
C2511      C2627   1.587       .  S
C2511      C2515   1.545       .  S
C2511      C2517   1.539       .  S
C2511      C2516   1.521       .  S
C2512      C2520   1.372       .  A
C2512      C2515   1.429       .  A
C2513      C2524   1.374       .  A
C2513      C2516   1.438       .  A
C2514      C2528   1.375       .  A
C2514      C2517   1.422       .  A
C2515      C2518   1.381       .  A
C2516      C2522   1.359       .  A
C2517      C2525   1.387       .  A
C2518      N2519   1.351       .  A
C2518      H2531   1.082       .  S
N2519      C2520   1.337       .  A
N2519      C2602   1.429       .  S
C2520      H2521   1.081       .  S
C2522      N2523   1.317       .  A
C2522      H2532   1.079       .  S
N2523      C2524   1.338       .  A
C2524      H2530   1.080       .  S
C2525      N2526   1.352       .  A
C2525      H2527   1.080       .  S
N2526      C2528   1.340       .  A
N2526      C2651   1.428       .  S
C2528      H2529   1.082       .  S
C2533      N2551   1.352       .  A
C2533      C2570   1.480       .  S
N2534      N2551   1.335   1_556  A
N2534      N2556   1.316       .  A
C2535      N2560   1.353       .  A
C2535      H2580   1.081       .  S
C2535      C2573   1.470       .  S
H2536      C2577   1.081       .  S
C2537      N2561   1.360       .  A
C2537      H2566   1.081       .  S
C2537      C2541   1.485       .  S
Co2538     N2929   2.102       .  S
Co2538     N2554   2.127       .  S
Co2538    Cl2582   2.506       .  S
N2539      C2577   1.358       .  A
N2539      N2546   1.331       .  A
N2539     Co2923   2.195   1_554  S
Co2540     N2922   2.207       .  S
Co2540     N2560   2.092       .  S
Co2540    Cl2582   2.459       .  S
C2541      N2579   1.349       .  A
N2542      N2549   1.331       .  A
N2542      N2572   1.341       .  A
N2543      N2561   1.317       .  A
N2543      N2579   1.328       .  A
N2544      C2573   1.366       .  A
N2544      N2554   1.331       .  A
H2545      C2570   1.082       .  S
N2546      N2567   1.333       .  A
N2546     Co2921   2.123   1_554  S
N2547      N2565   1.330       .  A
N2547      N2552   1.340       .  A
C2548      N2552   1.378       .  A
C2548      C2576   1.478       .  S
N2549      C2564   1.352       .  A
N2549     Co2954   2.182   1_654  S
C2550      N2578   1.350       .  A
C2550      H2584   1.081       .  S
C2550      C2553   1.466       .  S
C2553      N2574   1.375       .  A
N2554      N2560   1.318       .  A
N2555      C2581   1.347       .  A
N2555      N2557   1.318       .  A
N2555     Co2571   2.056   1_655  S
N2556      C2570   1.339   1_556  A
N2557      N2585   1.328       .  A
H2558      C2581   1.082       .  S
H2559      C2576   1.082       .  S
N2561     Co2958   2.141   1_554  S
N2562      N2574   1.342       .  A
N2562      N2578   1.329       .  A
C2563      N2567   1.359       .  A
C2563      C2577   1.496       .  S
C2564      H2568   1.081       .  S
C2564      C2583   1.484       .  S
N2565      C2576   1.353       .  A
N2565     Co2575   2.133       .  S
C2569      N2585   1.364       .  A
C2569      C2581   1.461       .  S
Co2571     N2932   2.179   1_455  S
N2572      C2583   1.362       .  A
Co2575     N2944   2.109       .  S
C2586      H2588   1.082       .  S
C2586      C2587   1.384       .  D
C2587      H2589   1.073       .  S
C2590      H2592   1.081       .  S
C2590      C2591   1.377       .  D
C2591      H2593   1.086       .  S
C2594      H2596   1.084       .  S
C2594      C2595   1.324       .  D
C2595      H2597   1.087       .  S
C2598      H2600   1.089       .  S
C2598      C2599   1.314       .  D
C2599      H2601   1.087       .  S
C2602      H2604   1.089       .  S
C2602      C2603   1.324       .  D
C2603      H2605   1.084       .  S
C2606      H2608   1.086       .  S
C2606      C2607   1.349       .  D
C2607      H2609   1.065       .  S
C2610      H2612   1.083       .  S
C2610      C2611   1.391       .  D
C2611      H2613   1.081       .  S
C2614      H2616   1.086       .  S
C2614      C2615   1.344       .  D
C2615      H2617   1.086       .  S
C2618      H2620   1.085       .  S
C2618      C2619   1.357       .  D
C2619      H2621   1.086       .  S
C2622      H2624   1.087       .  S
C2622      C2623   1.347       .  D
C2623      H2625   1.087       .  S
C2626      H2628   1.080       .  S
C2626      C2627   1.386       .  D
C2627      H2629   1.085       .  S
C2630      H2632   1.073       .  S
C2630      C2631   1.368       .  D
C2631      H2633   1.085       .  S
C2634      H2636   1.083       .  S
C2634      C2635   1.355       .  D
C2635      H2637   1.088       .  S
C2638      H2640   1.080       .  S
C2638      C2639   1.394       .  D
C2639      H2641   1.083       .  S
C2642      H2644   1.083       .  S
C2642      C2643   1.325       .  D
C2643      H2645   1.089       .  S
C2646      H2648   1.086       .  S
C2646      C2647   1.352       .  D
C2647      H2649   1.084       .  S
C2650      H2652   1.086       .  S
C2650      C2651   1.351       .  D
C2651      H2653   1.078       .  S
C2654      H2656   1.085       .  S
C2654      C2655   1.375       .  D
C2655      H2657   1.085       .  S
C2658      H2660   1.087       .  S
C2658      C2659   1.348       .  D
C2659      H2661   1.085       .  S
C2662      H2664   1.086       .  S
C2662      C2663   1.349       .  D
C2663      H2665   1.085       .  S
C2666      H2668   1.085       .  S
C2666      C2667   1.348       .  D
C2667      H2669   1.085       .  S
C2670      H2672   1.086       .  S
C2670      C2671   1.329       .  D
C2671      H2673   1.087       .  S
C2674      H2676   1.083       .  S
C2674      C2675   1.377       .  D
C2675      H2677   1.085       .  S
C2678      H2680   1.085       .  S
C2678      C2679   1.358       .  D
C2679      H2681   1.084       .  S
C2682      C2683   1.570       .  S
C2682      C2688   1.544       .  S
C2682      C2686   1.549       .  S
C2682      C2946   1.553       .  S
C2683      H2690   1.085       .  S
C2683      C2684   1.386       .  D
C2684      C2685   1.511       .  S
C2684      C3057   1.510       .  S
C2685      C2689   1.526       .  S
C2685      C2687   1.522       .  S
C2685      H2691   1.109       .  S
C2686      H2692   1.086       .  S
C2686      C2687   1.372       .  D
C2687      C3062   1.485       .  S
C2688      H2693   1.086       .  S
C2688      C2689   1.368       .  D
C2689      C3053   1.461       .  S
C2694      C3061   1.518       .  S
C2694      C2696   1.542       .  S
C2694      C2698   1.531       .  S
C2694      C2697   1.528       .  S
C2695      C3049   1.518       .  S
C2695      C2699   1.537       .  S
C2695      C2701   1.540       .  S
C2695      C2700   1.531       .  S
C2696      C2704   1.386       .  A
C2696      C2699   1.414       .  A
C2697      C2708   1.369       .  A
C2697      C2700   1.412       .  A
C2698      C2712   1.373       .  A
C2698      C2701   1.383       .  A
C2699      C2702   1.386       .  A
C2700      C2706   1.363       .  A
C2701      C2709   1.393       .  A
C2702      N2703   1.343       .  A
C2702      H2715   1.083       .  S
N2703      C2704   1.350       .  A
N2703      C3046   1.432       .  S
C2704      H2705   1.076       .  S
C2709      N2710   1.365       .  A
C2709      H2711   1.082       .  S
N2710      C2712   1.355       .  A
N2710      C3041   1.444       .  S
C2712      H2713   1.083       .  S
C2717      C2718   1.568       .  S
C2717      C2723   1.538       .  S
C2717      C2721   1.546       .  S
C2717      C2936   1.534       .  S
C2718      H2725   1.085       .  S
C2718      C2719   1.381       .  D
C2719      C2720   1.533       .  S
C2719      C3037   1.517       .  S
C2720      C2724   1.526       .  S
C2720      C2722   1.529       .  S
C2720      H2726   1.108       .  S
C2721      H2727   1.086       .  S
C2721      C2722   1.371       .  D
C2722      C3050   1.480       .  S
C2723      H2728   1.087       .  S
C2723      C2724   1.363       .  D
C2724      C3033   1.468       .  S
C2729      C3058   1.570       .  S
C2729      C2731   1.529       .  S
C2729      C2733   1.525       .  S
C2729      C2732   1.519       .  S
C2730      C3021   1.582       .  S
C2730      C2734   1.523       .  S
C2730      C2736   1.547       .  S
C2730      C2735   1.555       .  S
C2731      C2739   1.354       .  A
C2731      C2734   1.409       .  A
C2732      C2743   1.362       .  A
C2732      C2735   1.441       .  A
C2733      C2747   1.373       .  A
C2733      C2736   1.420       .  A
C2734      C2737   1.370       .  A
C2735      C2741   1.382       .  A
C2736      C2744   1.374       .  A
C2737      N2738   1.348       .  A
C2737      H2750   1.080       .  S
N2738      C2739   1.351       .  A
N2738      C3026   1.413       .  S
C2739      H2740   1.083       .  S
C2744      N2745   1.344       .  A
C2744      H2746   1.078       .  S
N2745      C2747   1.345       .  A
N2745      C3030   1.418       .  S
C2747      H2748   1.082       .  S
C2752      C2753   1.558       .  S
C2752      C2758   1.539       .  S
C2752      C2756   1.544       .  S
C2752      C2924   1.524       .  S
C2753      H2760   1.086       .  S
C2753      C2754   1.379       .  D
C2754      C2755   1.528       .  S
C2754      C3014   1.506       .  S
C2755      C2759   1.526       .  S
C2755      C2757   1.531       .  S
C2755      H2761   1.097       .  S
C2756      H2762   1.086       .  S
C2756      C2757   1.362       .  D
C2757      C3017   1.480       .  S
C2758      H2763   1.086       .  S
C2758      C2759   1.364       .  D
C2759      C3029   1.471       .  S
C2764      C2765   1.564       .  S
C2764      C2770   1.576       .  S
C2764      C2768   1.518       .  S
C2764      C2956   1.538       .  S
C2765      H2772   1.085       .  S
C2765      C2766   1.380       .  D
C2766      C2767   1.529       .  S
C2766      C3042   1.498       .  S
C2767      C2771   1.529       .  S
C2767      C2769   1.520       .  S
C2767      H2773   1.109       .  S
C2768      H2774   1.088       .  S
C2768      C2769   1.336       .  D
C2769      C3025   1.434       .  S
C2770      H2775   1.085       .  S
C2770      C2771   1.390       .  D
C2771      C3009   1.522       .  S
C2776      C2997   1.504       .  S
C2776      C2778   1.544       .  S
C2776      C2780   1.542       .  S
C2776      C2779   1.505       .  S
C2777      C3018   1.511       .  S
C2777      C2781   1.531       .  S
C2777      C2783   1.540       .  S
C2777      C2782   1.525       .  S
C2778      C2786   1.397       .  A
C2778      C2781   1.412       .  A
C2779      C2782   1.392       .  A
C2780      C2794   1.395       .  A
C2780      C2783   1.412       .  A
C2781      C2784   1.382       .  A
C2783      C2791   1.389       .  A
C2784      N2785   1.343       .  A
C2784      H2797   1.082       .  S
N2785      C2786   1.350       .  A
N2785      C3006   1.440       .  S
C2786      H2787   1.081       .  S
C2788      N2789   1.348       .  A
C2788      H2798   1.082       .  S
N2789      C2790   1.342       .  A
C2790      H2796   1.078       .  S
C2791      N2792   1.348       .  A
C2791      H2793   1.081       .  S
N2792      C2794   1.352       .  A
N2792      C3002   1.446       .  S
C2794      H2795   1.082       .  S
C2799      C2800   1.518       .  S
C2799      C2805   1.554       .  S
C2799      C2803   1.587       .  S
C2799      C2966   1.539       .  S
C2800      H2807   1.088       .  S
C2800      C2801   1.338       .  D
C2801      C2802   1.527       .  S
C2801      C2989   1.442       .  S
C2802      C2806   1.521       .  S
C2802      C2804   1.520       .  S
C2802      H2808   1.106       .  S
C2803      H2809   1.085       .  S
C2803      C2804   1.400       .  D
C2804      C2993   1.526       .  S
C2805      H2810   1.085       .  S
C2805      C2806   1.371       .  D
C2806      C3005   1.477       .  S
C2811      C2812   1.557       .  S
C2811      C2817   1.553       .  S
C2811      C2815   1.598       .  S
C2811      C2931   1.603       .  S
C2812      H2819   1.085       .  S
C2812      C2813   1.379       .  D
C2813      C2814   1.521       .  S
C2813      C2986   1.483       .  S
C2814      C2818   1.520       .  S
C2814      C2816   1.511       .  S
C2814      H2820   1.106       .  S
C2815      H2821   1.085       .  S
C2815      C2816   1.402       .  D
C2816      C3022   1.542       .  S
C2817      H2822   1.085       .  S
C2817      C2818   1.374       .  D
C2818      C3001   1.491       .  S
C2823      C3038   1.552       .  S
C2823      C2825   1.522       .  S
C2823      C2827   1.533       .  S
C2823      C2826   1.544       .  S
C2824      C2994   1.556       .  S
C2824      C2828   1.517       .  S
C2824      C2830   1.531       .  S
C2824      C2829   1.531       .  S
C2825      C2833   1.372       .  A
C2825      C2828   1.397       .  A
C2826      C2829   1.439       .  A
C2827      C2841   1.374       .  A
C2827      C2830   1.420       .  A
C2828      C2831   1.361       .  A
C2830      C2838   1.375       .  A
C2831      N2832   1.347       .  A
C2831      H2844   1.081       .  S
N2832      C2833   1.354       .  A
N2832      C2981   1.418       .  S
C2833      H2834   1.083       .  S
C2835      N2836   1.322       .  A
C2835      H2845   1.080       .  S
N2836      C2837   1.350       .  A
C2837      H2843   1.083       .  S
C2838      N2839   1.347       .  A
C2838      H2840   1.082       .  S
N2839      C2841   1.337       .  A
N2839      C2977   1.419       .  S
C2841      H2842   1.080       .  S
C2846      C2847   1.525       .  S
C2846      C2852   1.552       .  S
C2846      C2850   1.572       .  S
C2846      C2916   1.539       .  S
C2847      H2854   1.079       .  S
C2847      C2848   1.333       .  D
C2848      C2849   1.520       .  S
C2848      C2982   1.447       .  S
C2849      C2853   1.534       .  S
C2849      C2851   1.521       .  S
C2849      H2855   1.104       .  S
C2850      C2851   1.391       .  D
C2851      C2973   1.500       .  S
C2852      H2857   1.086       .  S
C2852      C2853   1.376       .  D
C2853      C3045   1.499       .  S
C2858      C2859   1.571       .  S
C2858      C2864   1.539       .  S
C2858      C2862   1.549       .  S
C2858      C2952   1.540       .  S
C2859      H2866   1.085       .  S
C2859      C2860   1.388       .  D
C2860      C2861   1.514       .  S
C2860      C2969   1.508       .  S
C2861      C2865   1.526       .  S
C2861      C2863   1.519       .  S
C2861      H2867   1.099       .  S
C2862      H2868   1.085       .  S
C2862      C2863   1.358       .  D
C2863      C2998   1.474       .  S
C2864      H2869   1.086       .  S
C2864      C2865   1.366       .  D
C2865      C2978   1.465       .  S
C2870      C3013   1.535       .  S
C2870      C2872   1.510       .  S
C2870      C2874   1.537       .  S
C2870      C2873   1.526       .  S
C2871      C2974   1.540       .  S
C2871      C2875   1.516       .  S
C2871      C2877   1.532       .  S
C2871      C2876   1.522       .  S
C2872      C2880   1.356       .  A
C2872      C2875   1.383       .  A
C2873      C2876   1.430       .  A
C2874      C2888   1.377       .  A
C2874      C2877   1.432       .  A
C2875      C2878   1.367       .  A
C2877      C2885   1.373       .  A
C2878      N2879   1.348       .  A
C2878      H2891   1.080       .  S
N2879      C2880   1.355       .  A
N2879      C2990   1.414       .  S
C2880      H2881   1.083       .  S
C2882      N2883   1.342   1_554  A
C2882      H2892   1.082   1_554  S
N2883      C2884   1.325   1_556  A
N2883      N2906   1.381       .  S
C2884      H2890   1.079       .  S
C2885      N2886   1.345       .  A
C2885      H2887   1.080       .  S
N2886      C2888   1.340       .  A
N2886      C3054   1.423       .  S
C2888      H2889   1.084       .  S
C2893      C2970   1.537       .  S
C2893      C2895   1.536       .  S
C2893      C2897   1.524       .  S
C2893      C2896   1.521       .  S
C2894      C3010   1.544       .  S
C2894      C2898   1.548       .  S
C2894      C2900   1.523       .  S
C2894      C2899   1.541       .  S
C2895      C2903   1.384       .  A
C2895      C2898   1.435       .  A
C2896      C2907   1.347       .  A
C2896      C2899   1.422       .  A
C2897      C2911   1.373       .  A
C2897      C2900   1.379       .  A
C2898      C2901   1.383       .  A
C2899      C2905   1.367       .  A
C2900      C2908   1.376       .  A
C2901      N2902   1.343       .  A
C2901      H2914   1.082       .  S
N2902      C2903   1.347       .  A
N2902      C2985   1.430       .  S
C2903      H2904   1.083       .  S
C2905      N2906   1.356       .  A
C2905      H2915   1.083       .  S
N2906      C2907   1.325       .  A
C2907      H2913   1.080       .  S
C2908      N2909   1.357       .  A
C2908      H2910   1.082       .  S
N2909      C2911   1.359       .  A
N2909      C3034   1.436       .  S
C2911      H2912   1.082       .  S
C2916      N2934   1.354       .  A
C2916      C2953   1.475       .  S
N2917      N2934   1.336       .  A
N2917      N2939   1.315       .  A
C2918      N2943   1.350       .  A
C2918      H2963   1.081       .  S
C2918      C2956   1.461       .  S
H2919      C2960   1.081       .  S
C2920      N2944   1.350       .  A
C2920      H2949   1.081       .  S
C2920      C2924   1.468       .  S
Co2921     N2937   2.110       .  S
Co2921    Cl2965   2.474       .  S
N2922      C2960   1.361       .  A
N2922      N2929   1.333       .  A
Co2923     N2943   2.066       .  S
Co2923    Cl2965   2.459       .  S
C2924      N2962   1.349       .  A
N2925      N2932   1.329       .  A
N2925      N2955   1.332       .  A
N2926      N2944   1.320       .  A
N2926      N2962   1.327       .  A
N2927      C2956   1.363       .  A
N2927      N2937   1.332       .  A
H2928      C2953   1.078       .  S
N2929      N2950   1.330       .  A
N2930      N2948   1.331       .  A
N2930      N2935   1.352       .  A
C2931      N2935   1.388       .  A
C2931      C2959   1.473       .  S
N2932      C2947   1.351       .  A
C2933      N2961   1.341       .  A
C2933      H2967   1.082       .  S
C2933      C2936   1.462       .  S
C2936      N2957   1.371       .  A
N2937      N2943   1.314       .  A
N2938      C2964   1.339       .  A
N2938      N2940   1.320       .  A
N2938     Co2954   2.066   1_655  S
N2939      C2953   1.331       .  A
N2940      N2968   1.339       .  A
H2941      C2964   1.082       .  S
H2942      C2959   1.081       .  S
N2945      N2957   1.336       .  A
N2945      N2961   1.330       .  A
C2946      N2950   1.352       .  A
C2946      C2960   1.495       .  S
C2947      H2951   1.082       .  S
C2947      C2966   1.491       .  S
N2948      C2959   1.358       .  A
N2948     Co2958   2.137       .  S
C2952      N2968   1.365       .  A
C2952      C2964   1.456       .  S
N2955      C2966   1.360       .  A
C2969      H2971   1.085       .  S
C2969      C2970   1.374       .  D
C2970      H2972   1.080       .  S
C2973      H2975   1.084       .  S
C2973      C2974   1.367       .  D
C2974      H2976   1.082       .  S
C2977      H2979   1.086       .  S
C2977      C2978   1.345       .  D
C2978      H2980   1.087       .  S
C2981      H2983   1.089       .  S
C2981      C2982   1.340       .  D
C2982      H2984   1.085       .  S
C2985      H2987   1.084       .  S
C2985      C2986   1.356       .  D
C2986      H2988   1.086       .  S
C2989      H2991   1.086       .  S
C2989      C2990   1.327       .  D
C2990      H2992   1.089       .  S
C2993      H2995   1.084       .  S
C2993      C2994   1.384       .  D
C2994      H2996   1.076       .  S
C2997      H2999   1.085       .  S
C2997      C2998   1.345       .  D
C2998      H3000   1.086       .  S
C3001      H3003   1.085       .  S
C3001      C3002   1.352       .  D
C3002      H3004   1.085       .  S
C3005      H3007   1.085       .  S
C3005      C3006   1.352       .  D
C3006      H3008   1.085       .  S
C3009      H3011   1.084       .  S
C3009      C3010   1.367       .  D
C3010      H3012   1.086       .  S
C3013      H3015   1.084       .  S
C3013      C3014   1.363       .  D
C3014      H3016   1.082       .  S
C3017      H3019   1.085       .  S
C3017      C3018   1.339       .  D
C3018      H3020   1.086       .  S
C3021      H3023   1.083       .  S
C3021      C3022   1.383       .  D
C3022      H3024   1.083       .  S
C3025      H3027   1.086       .  S
C3025      C3026   1.325       .  D
C3026      H3028   1.088       .  S
C3029      H3031   1.087       .  S
C3029      C3030   1.345       .  D
C3030      H3032   1.081       .  S
C3033      H3035   1.084       .  S
C3033      C3034   1.341       .  D
C3034      H3036   1.087       .  S
C3037      H3039   1.084       .  S
C3037      C3038   1.363       .  D
C3038      H3040   1.087       .  S
C3041      H3043   1.087       .  S
C3041      C3042   1.353       .  D
C3042      H3044   1.085       .  S
C3045      H3047   1.087       .  S
C3045      C3046   1.353       .  D
C3046      H3048   1.078       .  S
C3049      H3051   1.086       .  S
C3049      C3050   1.339       .  D
C3050      H3052   1.087       .  S
C3053      H3055   1.086       .  S
C3053      C3054   1.344       .  D
C3054      H3056   1.085       .  S
C3057      H3059   1.079       .  S
C3057      C3058   1.376       .  D
C3058      H3060   1.086       .  S
C3061      H3063   1.085       .  S
C3061      C3062   1.359       .  D
C3062      H3064   1.084       .  S
