geometry optimzed in LAMMPS
_audit_creation_date              2020-12-01 
_audit_creation_method            'lammps2cif' 
_symmetry_space_group_name_H-M    'P1' 
_symmetry_Int_Tables_number       1 
_symmetry_cell_setting            triclinic 
loop_ 
_symmetry_equiv_pos_as_xyz 
  x,y,z 
_cell_length_a                    45.04122996 
_cell_length_b                    47.88347833707489 
_cell_length_c                    44.94632198641512 
_cell_angle_alpha                 90.29824751400743 
_cell_angle_beta                  89.77540528766876 
_cell_angle_gamma                 89.97257066787876 
loop_ 
_atom_site_label 
_atom_site_type_symbol 
_atom_site_fract_x 
_atom_site_fract_y 
_atom_site_fract_z 
_atom_site_charge 
C1          C  0.43015174  0.43878330  0.05882349     0.42400
N2          N  0.45935923  0.47344400  0.05044651     0.01200
C3          C  0.47004359  0.04989165  0.42023396    -0.06600
H4          H  0.48331371  0.44301904  0.40612440     0.06700
C5          C  0.07445312  0.44845636  0.47336281    -0.07000
Co6        Co  0.44485804  0.50219441  0.49314545     0.74200
N7          N  0.47225604  0.46953822  0.44364567    -0.26200
Co8        Co  0.00548796  0.49981744  0.44619369     0.74100
C9          C  0.06569945  0.43371597  0.44611120     0.42500
N10         N  0.04818215  0.47364434  0.04130503     0.00900
N11         N  0.03748800  0.46932189  0.45255343     0.01000
N12         N  0.43041806  0.05102951  0.45131067    -0.47000
H13         H  0.40548727  0.44612753  0.01449931     0.06700
N14         N  0.44894360  0.47067317  0.46145175     0.01200
N15         N  0.03855657  0.03010394  0.44944964     0.01000
C16         C  0.06950789  0.06262788  0.43847731     0.42600
N17         N  0.02492779  0.47453778  0.05919782    -0.25600
C18         C  0.42165651  0.05437339  0.02670859    -0.06500
N19         N  0.45317644  0.45358912  0.06999439    -0.46700
N20         N  0.04560825  0.04836930  0.42862516    -0.47000
C21         C  0.42849357  0.06872888  0.05462884     0.42400
N22         N  0.44970323  0.03149614  0.45914151     0.01200
N23         N  0.02459985  0.03507720  0.05629331    -0.25600
N24         N  0.44162961  0.47278188  0.02715586    -0.26100
N25         N  0.04797196  0.03465173  0.03848344     0.00900
H26         H  0.01123983  0.06164416  0.09248870     0.06800
H27         H  0.09531445  0.05613778  0.48216569     0.06800
N28         N  0.47293195  0.03033287  0.44121812    -0.26200
N29         N  0.05570818  0.47019268  0.47546058    -0.25800
N30         N  0.45900605  0.03468830  0.04819906     0.01200
C31         C  0.43977754  0.43641553  0.43216150     0.43000
C32         C  0.02839401  0.45545539  0.08058388    -0.07000
N33         N  0.05663676  0.03113998  0.47244648    -0.25800
H34         H  0.09223678  0.44397515  0.48869512     0.06800
N35         N  0.42866381  0.45162314  0.45493044    -0.47000
H36         H  0.01304271  0.45206751  0.09873537     0.06800
C37         C  0.05532921  0.06989230  0.06747749     0.42500
C38         C  0.42255661  0.45155324  0.03030320    -0.06500
Co39       Co  0.49181791  0.00444848  0.05417316     0.73800
N40         N  0.06802969  0.45481139  0.04953728    -0.46700
C41         C  0.44175111  0.06364094  0.42691110     0.42700
N42         N  0.45191735  0.05528707  0.06672993    -0.46700
Co43       Co  0.05287099  0.00247051  0.00699757     0.73900
C44         C  0.07692598  0.05121133  0.46767608    -0.07100
C45         C  0.46853666  0.44836483  0.42430598    -0.06600
N46         N  0.44146898  0.03364376  0.02482341    -0.26100
N47         N  0.04283391  0.44807780  0.43443642    -0.46900
H48         H  0.48559455  0.05336660  0.40226956     0.06700
C49         C  0.02713286  0.05657941  0.07523657    -0.07000
Cl50       Cl  0.99878974  0.00226465  0.00013107    -0.50000
C51         C  0.05711424  0.44239073  0.07419264     0.42500
H52         H  0.40435784  0.05819144  0.01066770     0.06700
N53         N  0.06700933  0.05503520  0.04451456    -0.46700
C54         C  0.13975456  0.13906960  0.36494715     0.86400
C55         C  0.17345585  0.13486123  0.36863015    -0.53900
C56         C  0.19051564  0.15306509  0.35254678     0.09300
C57         C  0.17216519  0.17379830  0.33405175     0.20300
C58         C  0.13435388  0.16998549  0.37265339    -0.54600
C59         C  0.15114887  0.18811879  0.35639463     0.09400
C60         C  0.13520767  0.13719955  0.33085345    -0.54100
C61         C  0.15194179  0.15546511  0.31473149     0.10000
H62         H  0.18287723  0.11905482  0.38301521     0.14500
H63         H  0.18571408  0.18881812  0.32110590     0.00200
H64         H  0.11795310  0.17689020  0.38887480     0.14800
H65         H  0.12114107  0.12228165  0.31961380     0.14600
C66         C  0.13675974  0.35626270  0.37557559     0.86400
C67         C  0.13213169  0.36163627  0.34210768    -0.53900
C68         C  0.14883691  0.34509054  0.32402759     0.09300
C69         C  0.16910604  0.32481624  0.34057697     0.20300
C70         C  0.13138838  0.32481955  0.37954273    -0.54600
C71         C  0.14809652  0.30839206  0.36102269     0.09400
C72         C  0.17062648  0.36018731  0.37953979    -0.54100
C73         C  0.18757129  0.34329567  0.36157809     0.10000
H74         H  0.11764294  0.37758984  0.33310922     0.14500
H75         H  0.18267024  0.31158808  0.32538574     0.00200
H76         H  0.11531258  0.31636950  0.39515637     0.14800
H77         H  0.18046450  0.37516354  0.39475502     0.14600
C78         C  0.12897508  0.36773180  0.14734501     0.86400
C79         C  0.16280536  0.37134808  0.14261536    -0.53900
C80         C  0.18005605  0.35251433  0.15768299     0.09300
C81         C  0.16150847  0.33233070  0.17673228     0.20300
C82         C  0.12279598  0.33695692  0.13958963    -0.54600
C83         C  0.13985017  0.31843682  0.15492273     0.09400
C84         C  0.12522965  0.36963376  0.18148543    -0.54100
C85         C  0.14227794  0.35111204  0.19661536     0.10000
H86         H  0.17212739  0.38757715  0.12865110     0.14500
H87         H  0.17419355  0.31674705  0.18952850     0.00200
H88         H  0.10692593  0.33055051  0.12276439     0.14800
H89         H  0.11184076  0.38487740  0.19330163     0.14600
C90         C  0.12650120  0.14965200  0.13551504     0.86400
C91         C  0.12422998  0.14533022  0.16954992    -0.53900
C92         C  0.14268416  0.16194176  0.18596262     0.09300
C93         C  0.16221318  0.18107336  0.16680319     0.20300
C94         C  0.12174879  0.18118351  0.13102677    -0.54600
C95         C  0.14052467  0.19772216  0.14731434     0.09400
C96         C  0.15972553  0.14469667  0.12900936    -0.54100
C97         C  0.17816569  0.16136042  0.14513269     0.10000
H98         H  0.11092441  0.12922605  0.17989398     0.14500
H99         H  0.17742711  0.19423511  0.18018547     0.00200
H100        H  0.10524383  0.18956640  0.11595787     0.14800
H101        H  0.16810939  0.12911678  0.11348238     0.14600
C102        C  0.37077097  0.14004639  0.35469596     0.86400
C103        C  0.37292112  0.13662571  0.32047430    -0.53900
C104        C  0.35471840  0.15409532  0.30498402     0.09300
C105        C  0.33582857  0.17322055  0.32498122     0.20300
C106        C  0.37631603  0.17137527  0.36047110    -0.54600
C107        C  0.35823040  0.18872224  0.34462597     0.09400
C108        C  0.33742287  0.13574879  0.36113156    -0.54100
C109        C  0.31914626  0.15342399  0.34599884     0.10000
H110        H  0.38599102  0.12086721  0.30913184     0.14500
H111        H  0.32096578  0.18736851  0.31248216     0.00200
H112        H  0.39336051  0.17907974  0.37542996     0.14800
H113        H  0.32902698  0.12026447  0.37659156     0.14600
C114        C  0.35552226  0.14603913  0.12449483     0.86400
C115        C  0.32155117  0.14303165  0.12053103    -0.53900
C116        C  0.30534735  0.15962989  0.13907433     0.09300
C117        C  0.32398596  0.17769191  0.16005228     0.20300
C118        C  0.36165031  0.17751681  0.12106587    -0.54600
C119        C  0.34489572  0.19417506  0.13946633     0.09400
C120        C  0.36017118  0.14017356  0.15782493    -0.54100
C121        C  0.34404380  0.15696005  0.17649979     0.10000
H122        H  0.31060441  0.12843677  0.10573473     0.14500
H123        H  0.31070429  0.19110828  0.17519975     0.00200
H124        H  0.37742753  0.18579907  0.10506100     0.14800
H125        H  0.37485175  0.12394959  0.16596206     0.14600
C126        C  0.36018121  0.36339363  0.13348982     0.86400
C127        C  0.36577885  0.36855664  0.16690410    -0.53900
C128        C  0.34966385  0.35161452  0.18523556     0.09300
C129        C  0.32938462  0.33106856  0.16847403     0.20300
C130        C  0.36598503  0.33209680  0.12862209    -0.54600
C131        C  0.34980827  0.31511168  0.14679025     0.09400
C132        C  0.32605237  0.36677820  0.13073556    -0.54100
C133        C  0.30968362  0.34947050  0.14857500     0.10000
H134        H  0.38059106  0.38460655  0.17533625     0.14500
H135        H  0.31739271  0.31680947  0.18362243     0.00200
H136        H  0.38065157  0.32417116  0.11130609     0.14800
H137        H  0.31571648  0.38295023  0.11768732     0.14600
C138        C  0.36773103  0.35750179  0.36466749     0.86400
C139        C  0.33439014  0.36027746  0.37200762    -0.53900
C140        C  0.31627848  0.34431145  0.35452146     0.09300
C141        C  0.33327932  0.32647297  0.33150741     0.20300
C142        C  0.37371782  0.32581069  0.36733199    -0.54600
C143        C  0.35567261  0.30959577  0.34997727     0.09400
C144        C  0.37026423  0.36343485  0.33122906    -0.54100
C145        C  0.35230533  0.34738769  0.31383470     0.10000
H146        H  0.32592485  0.37357170  0.38975595     0.14500
H147        H  0.31869002  0.31334718  0.31731588     0.00200
H148        H  0.39036142  0.31652970  0.38148427     0.14800
H149        H  0.38493346  0.37926583  0.32211097     0.14600
C150        C  0.32429879  0.35359117  0.23476992    -0.21400
C151        C  0.35081207  0.35302077  0.21824816    -0.09500
C152        C  0.37797890  0.35229003  0.23349833     0.29400
C153        C  0.37835068  0.35084320  0.26462396    -0.21400
C154        C  0.35168900  0.34995642  0.28098171    -0.09500
C155        C  0.32460863  0.35180208  0.26580116     0.29400
F156        F  0.29848964  0.35255202  0.28096947    -0.20000
H157        H  0.30327253  0.35575494  0.22368572     0.17800
H158        H  0.39949257  0.34961686  0.27594415     0.17800
F159        F  0.40407644  0.35182259  0.21831415    -0.20000
C160        C  0.37363453  0.23918229  0.13661796    -0.21400
C161        C  0.34631915  0.22524716  0.13971741    -0.09500
C162        C  0.32039848  0.24122387  0.14410057     0.29400
C163        C  0.32199663  0.27023442  0.14640479    -0.21400
C164        C  0.34927079  0.28416793  0.14397507    -0.09500
C165        C  0.37517630  0.26838704  0.13869038     0.29400
F166        F  0.40206904  0.28100766  0.13659599    -0.20000
H167        H  0.39394300  0.22741736  0.13338612     0.17800
H168        H  0.30158998  0.28189242  0.14951053     0.17800
F169        F  0.29323999  0.22903047  0.14524413    -0.20000
C170        C  0.32448015  0.15837383  0.25885691    -0.21400
C171        C  0.35227711  0.15400855  0.27203022    -0.09500
C172        C  0.37731550  0.15039894  0.25355381     0.29400
C173        C  0.37434407  0.15112556  0.22261726    -0.21400
C174        C  0.34651629  0.15568510  0.20944313    -0.09500
C175        C  0.32156001  0.15943776  0.22798853     0.29400
F176        F  0.29412796  0.16357169  0.21656559    -0.20000
H177        H  0.30473686  0.16070499  0.27247554     0.17800
H178        H  0.39404987  0.14881181  0.20893418     0.17800
F179        F  0.40483403  0.14723007  0.26525224    -0.20000
C180        C  0.36127780  0.23352487  0.37353260    -0.21400
C181        C  0.35963562  0.21968050  0.34599342    -0.09500
C182        C  0.35761028  0.23560631  0.31983620     0.29400
C183        C  0.35641507  0.26476235  0.32138230    -0.21400
C184        C  0.35754916  0.27862433  0.34891874    -0.09500
C185        C  0.36016787  0.26273096  0.37507324     0.29400
F186        F  0.36032041  0.27531782  0.40219338    -0.20000
H187        H  0.36244427  0.22166969  0.39395782     0.17800
H188        H  0.35491045  0.27657581  0.30094769     0.17800
F189        F  0.35735342  0.22303933  0.29269464    -0.20000
C190        C  0.22674345  0.14343797  0.16228292    -0.21400
C191        C  0.21061188  0.16004644  0.14255064    -0.09500
C192        C  0.22555628  0.17571003  0.12086311     0.29400
C193        C  0.25657373  0.17537430  0.11961732    -0.21400
C194        C  0.27273622  0.15917819  0.13977263    -0.09500
C195        C  0.25769441  0.14269620  0.16067271     0.29400
F196        F  0.27293633  0.12566157  0.17919053    -0.20000
H197        H  0.21531068  0.13101359  0.17883114     0.17800
H198        H  0.26801915  0.18787501  0.10314951     0.17800
F199        F  0.21014495  0.19150805  0.10124397    -0.20000
C200        C  0.11320037  0.24350450  0.14506939    -0.21400
C201        C  0.14020784  0.22879722  0.14654251    -0.09500
C202        C  0.16685049  0.24404677  0.14857251     0.29400
C203        C  0.16629238  0.27309259  0.15041430    -0.21400
C204        C  0.13934094  0.28774521  0.15021407    -0.09500
C205        C  0.11268432  0.27274420  0.14688384     0.29400
F206        F  0.08611227  0.28611722  0.14688500    -0.20000
H207        H  0.09235700  0.23232234  0.14363265     0.17800
H208        H  0.18718867  0.28419249  0.15200704     0.17800
F209        F  0.19363537  0.23109640  0.14834597    -0.20000
C210        C  0.26176912  0.34006909  0.17561301    -0.21400
C211        C  0.27632514  0.34948553  0.14987940    -0.09500
C212        C  0.25855185  0.35861097  0.12596179     0.29400
C213        C  0.22753331  0.35956618  0.12872851    -0.21400
C214        C  0.21322671  0.35122800  0.15512690    -0.09500
C215        C  0.23099327  0.34101632  0.17840919     0.29400
F216        F  0.21929393  0.33240119  0.20454765    -0.20000
H217        H  0.27384390  0.33205654  0.19428653     0.17800
H218        H  0.21470563  0.36633794  0.10978012     0.17800
F219        F  0.27070910  0.36559051  0.09937219    -0.20000
C220        C  0.16995582  0.35706238  0.24392293    -0.21400
C221        C  0.14345893  0.35029301  0.22932490    -0.09500
C222        C  0.11845753  0.34248315  0.24602548     0.29400
C223        C  0.12031079  0.34086232  0.27699469    -0.21400
C224        C  0.14717121  0.34671228  0.29144539    -0.09500
C225        C  0.17201861  0.35488195  0.27479621     0.29400
F226        F  0.19788814  0.36158160  0.28848648    -0.20000
H227        H  0.18884440  0.36462253  0.23145453     0.17800
H228        H  0.10094127  0.33469291  0.28973005     0.17800
F229        F  0.09251891  0.33604461  0.23234088    -0.20000
C230        C  0.23624924  0.36876128  0.36280357    -0.21400
C231        C  0.22063238  0.34340283  0.36142116    -0.09500
C232        C  0.23678393  0.31831115  0.35881127     0.29400
C233        C  0.26782420  0.31876881  0.35669339    -0.21400
C234        C  0.28337780  0.34415563  0.35756631    -0.09500
C235        C  0.26728656  0.36919973  0.36088964     0.29400
F236        F  0.28142690  0.39422309  0.36097671    -0.20000
H237        H  0.22436474  0.38836323  0.36447186     0.17800
H238        H  0.27976604  0.29921186  0.35469838     0.17800
F239        F  0.22267620  0.29326559  0.35900189    -0.20000
C240        C  0.12221495  0.15438253  0.26778214    -0.21400
C241        C  0.14990994  0.15742167  0.28173762    -0.09500
C242        C  0.17520014  0.16201979  0.26396131     0.29400
C243        C  0.17263715  0.16359917  0.23296407    -0.21400
C244        C  0.14493159  0.16042444  0.21900839    -0.09500
C245        C  0.11966818  0.15576570  0.23685735     0.29400
F246        F  0.09229349  0.15327909  0.22461958    -0.20000
H247        H  0.10228015  0.15127707  0.28090023     0.17800
H248        H  0.19257988  0.16658284  0.21985429     0.17800
F249        F  0.20259281  0.16379305  0.27628856    -0.20000
C250        C  0.27072632  0.12790989  0.35029051    -0.21400
C251        C  0.28628902  0.15329711  0.34913824    -0.09500
C252        C  0.27021688  0.17847568  0.35029785     0.29400
C253        C  0.23919197  0.17815462  0.35181448    -0.21400
C254        C  0.22355294  0.15279299  0.35239317    -0.09500
C255        C  0.23967645  0.12757861  0.35182581     0.29400
F256        F  0.22549997  0.10258075  0.35137506    -0.20000
H257        H  0.28258074  0.10825965  0.34912213     0.17800
H258        H  0.22738557  0.19783597  0.35282478     0.17800
F259        F  0.28445433  0.20345284  0.35073621    -0.20000
C260        C  0.14703377  0.26218437  0.38668310    -0.21400
C261        C  0.14610368  0.27758856  0.36020972    -0.09500
C262        C  0.14487965  0.26337647  0.33281977     0.29400
C263        C  0.14606845  0.23426999  0.33193097    -0.21400
C264        C  0.14810902  0.21884132  0.35828469    -0.09500
C265        C  0.14804983  0.23297231  0.38579367     0.29400
F266        F  0.15048797  0.21867192  0.41165810    -0.20000
H267        H  0.14809040  0.27281070  0.40798314     0.17800
H268        H  0.14536870  0.22372199  0.31056337     0.17800
F269        F  0.14219317  0.27759343  0.30691395    -0.20000
C270        C  0.09735123  0.10356318  0.37213760    -0.21400
C271        C  0.12084171  0.11943758  0.38417334    -0.09500
C272        C  0.12601255  0.11739958  0.41510074     0.29400
C273        C  0.10930864  0.09905359  0.43274861    -0.21400
C274        C  0.08671182  0.08265514  0.42018067    -0.09500
C275        C  0.08080628  0.08533034  0.38966732     0.29400
F276        F  0.05922905  0.06999205  0.37634379    -0.20000
H277        H  0.09080998  0.10506835  0.34922217     0.17800
H278        H  0.11405200  0.09778752  0.45629587     0.17800
F279        F  0.14734849  0.13310727  0.42832562    -0.20000
C280        C  0.08535253  0.40189259  0.14082012    -0.21400
C281        C  0.10995627  0.38750143  0.12868680    -0.09500
C282        C  0.11558079  0.39033084  0.09791328     0.29400
C283        C  0.09827763  0.40812675  0.08049836    -0.21400
C284        C  0.07433869  0.42291487  0.09295374    -0.09500
C285        C  0.06788098  0.41940083  0.12333488     0.29400
F286        F  0.04509719  0.43323665  0.13661470    -0.20000
H287        H  0.07869468  0.39945167  0.16370604     0.17800
H288        H  0.10350884  0.41016496  0.05706298     0.17800
F289        F  0.13784565  0.37580013  0.08452162    -0.20000
C290        C  0.36355049  0.11394608  0.07913760    -0.21400
C291        C  0.37509350  0.12779597  0.10428969    -0.09500
C292        C  0.40556541  0.12415195  0.11064372     0.29400
C293        C  0.42282862  0.10524956  0.09414506    -0.21400
C294        C  0.41054337  0.09022052  0.07031034    -0.09500
C295        C  0.38079217  0.09527249  0.06257979     0.29400
F296        F  0.36764140  0.08148400  0.03975667    -0.20000
H297        H  0.34110536  0.11729816  0.07168609     0.17800
H298        H  0.44585442  0.10218640  0.10021817     0.17800
F299        F  0.41856199  0.13829237  0.13337268    -0.20000
C300        C  0.07999341  0.11945541  0.12897146    -0.21400
C301        C  0.10572907  0.13148411  0.11659213    -0.09500
C302        C  0.11175681  0.12613031  0.08619964     0.29400
C303        C  0.09512360  0.10631648  0.07034777    -0.21400
C304        C  0.07111507  0.09249390  0.08379140    -0.09500
C305        C  0.06306058  0.10013495  0.11302457     0.29400
F306        F  0.03947704  0.08838085  0.12695936    -0.20000
H307        H  0.07261631  0.12476840  0.15117590     0.17800
H308        H  0.10113302  0.10169893  0.04748581     0.17800
F309        F  0.13399645  0.13968063  0.07181604    -0.20000
C310        C  0.41312352  0.36893111  0.39759022    -0.21400
C311        C  0.38713912  0.37757662  0.38271675    -0.09500
C312        C  0.37986363  0.40631678  0.38340594     0.29400
C313        C  0.39694464  0.42523659  0.39976289    -0.21400
C314        C  0.42234399  0.41628538  0.41474476    -0.09500
C315        C  0.43064044  0.38814275  0.41322882     0.29400
F316        F  0.45544208  0.37916748  0.42733346    -0.20000
H317        H  0.42068389  0.34757992  0.39689684     0.17800
H318        H  0.39056961  0.44705844  0.40038635     0.17800
F319        F  0.35615919  0.41619779  0.36812466    -0.20000
C320        C  0.41454104  0.10580106  0.36093558    -0.21400
C321        C  0.39087134  0.12122711  0.37349738    -0.09500
C322        C  0.38626997  0.11921762  0.40453377     0.29400
C323        C  0.40290986  0.10055773  0.42165260    -0.21400
C324        C  0.42546229  0.08430690  0.40865536    -0.09500
C325        C  0.43153525  0.08760242  0.37815419     0.29400
F326        F  0.45326429  0.07266271  0.36444840    -0.20000
H327        H  0.42061028  0.10770823  0.33782851     0.17800
H328        H  0.39818483  0.09888706  0.44522594     0.17800
F329        F  0.36530629  0.13504556  0.41836821    -0.20000
C330        C  0.10781132  0.39975059  0.44191652    -0.21400
C331        C  0.08158313  0.41101875  0.43025142    -0.09500
C332        C  0.07143082  0.40123676  0.40254778     0.29400
C333        C  0.08866617  0.38269822  0.38582878    -0.21400
C334        C  0.11683364  0.37400103  0.39578914    -0.09500
C335        C  0.12502435  0.38104252  0.42516353     0.29400
F336        F  0.14951121  0.36987962  0.43792253    -0.20000
H337        H  0.11540879  0.40574577  0.46383924     0.17800
H338        H  0.07983668  0.37548213  0.36482288     0.17800
F339        F  0.04512480  0.40991657  0.39116471    -0.20000
C340        C  0.36681468  0.39354132  0.08687109    -0.21400
C341        C  0.37904029  0.38148045  0.11260891    -0.09500
C342        C  0.40972164  0.38532208  0.11764818     0.29400
C343        C  0.42632183  0.40364187  0.09986206    -0.21400
C344        C  0.41319247  0.41741794  0.07571007    -0.09500
C345        C  0.38347502  0.41126387  0.06877471     0.29400
F346        F  0.36985151  0.42291658  0.04504336    -0.20000
H347        H  0.34432905  0.38923020  0.08006410     0.17800
H348        H  0.44949444  0.40711973  0.10504913     0.17800
F349        F  0.42368024  0.37154741  0.13990970    -0.20000
C350        C  0.43008250  0.43879845  0.55882443     0.42400
N351        N  0.45933118  0.47342938  0.55044577     0.01200
C352        C  0.47004415  0.04984281  0.92020459    -0.06600
H353        H  0.48335694  0.44301550  0.90611615     0.06700
C354        C  0.07450199  0.44850958  0.97345921    -0.07000
Co355      Co  0.44487472  0.50218024  0.99313560     0.74200
N356        N  0.47230147  0.46951638  0.94365231    -0.26200
Co357      Co  0.00552218  0.49980429  0.94619361     0.74100
C358        C  0.06576803  0.43372175  0.94623502     0.42500
N359        N  0.04816466  0.47356780  0.54129660     0.00900
N360        N  0.03753757  0.46932595  0.95259076     0.01000
N361        N  0.43041550  0.05098517  0.95128045    -0.47000
H362        H  0.40541256  0.44617713  0.51451153     0.06700
N363        N  0.44898194  0.47065340  0.96144964     0.01200
N364        N  0.03856609  0.03011068  0.94943146     0.01000
C365        C  0.06952707  0.06262429  0.93844441     0.42600
N366        N  0.02491050  0.47448023  0.55919019    -0.25600
C367        C  0.42170661  0.05439861  0.52670820    -0.06500
N368        N  0.45312859  0.45357772  0.56999192    -0.46700
N369        N  0.04563535  0.04835324  0.92858825    -0.47000
C370        C  0.42854695  0.06874674  0.55462872     0.42400
N371        N  0.44970791  0.03146515  0.95912520     0.01200
N372        N  0.02463108  0.03502402  0.55629615    -0.25600
N373        N  0.44159559  0.47278892  0.52715880    -0.26100
N374        N  0.04800818  0.03458373  0.53849308     0.00900
H375        H  0.01126588  0.06161109  0.59247159     0.06800
H376        H  0.09530011  0.05617713  0.98215933     0.06800
N377        N  0.47293821  0.03029962  0.94120205    -0.26200
N378        N  0.05574671  0.47023807  0.97550434    -0.25800
N379        N  0.45903386  0.03468295  0.54820776     0.01200
C380        C  0.43980960  0.43641542  0.93213516     0.43000
C381        C  0.02836544  0.45540591  0.58058662    -0.07000
N382        N  0.05662768  0.03117609  0.97244080    -0.25800
H383        H  0.09227070  0.44405621  0.98881795     0.06800
N384        N  0.42869473  0.45161626  0.95490835    -0.47000
H385        H  0.01301156  0.45204142  0.59874047     0.06800
C386        C  0.05536968  0.06983282  0.56747770     0.42500
C387        C  0.42249601  0.45158104  0.53030874    -0.06500
Co388      Co  0.49182491  0.00441240  0.55417304     0.73800
N389        N  0.06800361  0.45472975  0.54954555    -0.46700
C390        C  0.44174683  0.06358234  0.92687288     0.42700
N391        N  0.45195720  0.05528741  0.56673775    -0.46700
Co392      Co  0.05287730  0.00240840  0.50698838     0.73900
C393        C  0.07691993  0.05124100  0.96766288    -0.07100
C394        C  0.46858059  0.44835220  0.92430137    -0.06600
N395        N  0.44149772  0.03365301  0.52483080    -0.26100
N396        N  0.04290123  0.44805312  0.93451587    -0.46900
H397        H  0.48559483  0.05331297  0.90223878     0.06700
C398        C  0.02716663  0.05653126  0.57523168    -0.07000
Cl399      Cl  0.99878854  0.00224675  0.50013069    -0.50000
C400        C  0.05708058  0.44232335  0.57421029     0.42500
H401        H  0.40441758  0.05823124  0.51066099     0.06700
N402        N  0.06705119  0.05496488  0.54452187    -0.46700
C403        C  0.13981566  0.13906160  0.86494572     0.86400
C404        C  0.17351869  0.13485038  0.86861244    -0.53900
C405        C  0.19057189  0.15306313  0.85253215     0.09300
C406        C  0.17221424  0.17380501  0.83405559     0.20300
C407        C  0.13442063  0.16997371  0.87267207    -0.54600
C408        C  0.15121015  0.18811403  0.85641673     0.09400
C409        C  0.13525713  0.13720624  0.83085500    -0.54100
C410        C  0.15198066  0.15548080  0.81473520     0.10000
H411        H  0.18294634  0.11903624  0.88298375     0.14500
H412        H  0.18575799  0.18883155  0.82111333     0.00200
H413        H  0.11802896  0.17687147  0.88890617     0.14800
H414        H  0.12119598  0.12228375  0.81961510     0.14600
C415        C  0.13686347  0.35622945  0.87582119     0.86400
C416        C  0.13221303  0.36168111  0.84237269    -0.53900
C417        C  0.14887704  0.34515603  0.82423018     0.09300
C418        C  0.16914012  0.32482463  0.84071713     0.20300
C419        C  0.13145703  0.32478512  0.87971640    -0.54600
C420        C  0.14813542  0.30837979  0.86114803     0.09400
C421        C  0.17073813  0.36011006  0.87976352    -0.54100
C422        C  0.18764422  0.34324012  0.86174345     0.10000
H423        H  0.11771638  0.37766394  0.83344144     0.14500
H424        H  0.18267732  0.31161011  0.82548849     0.00200
H425        H  0.11539327  0.31631824  0.89533207     0.14800
H426        H  0.18061800  0.37505815  0.89498004     0.14600
C427        C  0.12889350  0.36770161  0.64748829     0.86400
C428        C  0.16273063  0.37126549  0.64275121    -0.53900
C429        C  0.17996712  0.35242342  0.65783293     0.09300
C430        C  0.16138039  0.33230484  0.67693110     0.20300
C431        C  0.12266652  0.33692545  0.63978992    -0.54600
C432        C  0.13969739  0.31840941  0.65514906     0.09400
C433        C  0.12515936  0.36966770  0.68162500    -0.54100
C434        C  0.14218642  0.35115100  0.69679251     0.10000
H435        H  0.17206161  0.38747313  0.62876698     0.14500
H436        H  0.17401028  0.31670573  0.68975084     0.00200
H437        H  0.10679633  0.33051225  0.62296736     0.14800
H438        H  0.11180039  0.38496214  0.69340280     0.14600
C439        C  0.12649149  0.14963792  0.63552091     0.86400
C440        C  0.12422472  0.14530582  0.66955658    -0.53900
C441        C  0.14267091  0.16192456  0.68597187     0.09300
C442        C  0.16218401  0.18107166  0.66681753     0.20300
C443        C  0.12171489  0.18116877  0.63104607    -0.54600
C444        C  0.14047929  0.19771148  0.64734158     0.09400
C445        C  0.15972038  0.14470485  0.62901395    -0.54100
C446        C  0.17815038  0.16137435  0.64514323     0.10000
H447        H  0.11092652  0.12919467  0.67989790     0.14500
H448        H  0.17738915  0.19424210  0.68020054     0.00200
H449        H  0.10519546  0.18954943  0.61599150     0.14800
H450        H  0.16811480  0.12912971  0.61348734     0.14600
C451        C  0.37081468  0.14001588  0.85467247     0.86400
C452        C  0.37297389  0.13662376  0.82044931    -0.53900
C453        C  0.35478143  0.15411296  0.80497348     0.09300
C454        C  0.33589447  0.17322736  0.82498411     0.20300
C455        C  0.37637342  0.17133741  0.86048063    -0.54600
C456        C  0.35830004  0.18870344  0.84464668     0.09400
C457        C  0.33746459  0.13572379  0.86109522    -0.54100
C458        C  0.31919958  0.15341885  0.84597722     0.10000
H459        H  0.38603769  0.12086925  0.80909373     0.14500
H460        H  0.32103945  0.18739090  0.81249580     0.00200
H461        H  0.39342243  0.17902278  0.87544534     0.14800
H462        H  0.32905886  0.12022713  0.87653599     0.14600
C463        C  0.35551173  0.14599310  0.62450048     0.86400
C464        C  0.32153683  0.14297866  0.62055629    -0.53900
C465        C  0.30534121  0.15958964  0.63909791     0.09300
C466        C  0.32399246  0.17766767  0.66004803     0.20300
C467        C  0.36163298  0.17746678  0.62104044    -0.54600
C468        C  0.34488835  0.19413569  0.63943527     0.09400
C469        C  0.36017979  0.14015109  0.65783116    -0.54100
C470        C  0.34406140  0.15694979  0.67650009     0.10000
H471        H  0.31058494  0.12838003  0.60576829     0.14500
H472        H  0.31072063  0.19109537  0.67519232     0.00200
H473        H  0.37739899  0.18573866  0.60501825     0.14800
H474        H  0.37486808  0.12393509  0.66597248     0.14600
C475        C  0.36010801  0.36336185  0.63344798     0.86400
C476        C  0.36571889  0.36851090  0.66686197    -0.53900
C477        C  0.34963152  0.35154492  0.68519413     0.09300
C478        C  0.32936543  0.33099108  0.66842730     0.20300
C479        C  0.36593751  0.33207238  0.62855431    -0.54600
C480        C  0.34978737  0.31506517  0.64671954     0.09400
C481        C  0.32597235  0.36672014  0.63071762    -0.54100
C482        C  0.30962529  0.34938574  0.64855423     0.10000
H483        H  0.38051553  0.38457511  0.67528999     0.14500
H484        H  0.31742020  0.31670343  0.68357575     0.00200
H485        H  0.38059760  0.32416795  0.61122186     0.14800
H486        H  0.31562401  0.38290024  0.61769564     0.14600
C487        C  0.36778425  0.35748459  0.86463925     0.86400
C488        C  0.33444937  0.36022991  0.87201006    -0.53900
C489        C  0.31633693  0.34424980  0.85453958     0.09300
C490        C  0.33333455  0.32642140  0.83151430     0.20300
C491        C  0.37380360  0.32580001  0.86730472    -0.54600
C492        C  0.35575942  0.30956830  0.84997017     0.09400
C493        C  0.37027850  0.36341859  0.83119749    -0.54100
C494        C  0.35232271  0.34735107  0.81381674     0.10000
H495        H  0.32598863  0.37351545  0.88976779     0.14500
H496        H  0.31874755  0.31327412  0.81734383     0.00200
H497        H  0.39046083  0.31653368  0.88145212     0.14800
H498        H  0.38492082  0.37926612  0.82206948     0.14600
C499        C  0.32425861  0.35332160  0.73473655    -0.21400
C500        C  0.35077838  0.35294522  0.71821329    -0.09500
C501        C  0.37794835  0.35241445  0.73346626     0.29400
C502        C  0.37833299  0.35097736  0.76459363    -0.21400
C503        C  0.35168001  0.34990868  0.78095651    -0.09500
C504        C  0.32458731  0.35155190  0.76577174     0.29400
F505        F  0.29845862  0.35212723  0.78093205    -0.20000
H506        H  0.30322171  0.35531884  0.72365877     0.17800
H507        H  0.39948539  0.34990074  0.77590883     0.17800
F508        F  0.40405181  0.35212869  0.71828827    -0.20000
C509        C  0.37361861  0.23914206  0.63651186    -0.21400
C510        C  0.34630863  0.22520533  0.63965478    -0.09500
C511        C  0.32038941  0.24117915  0.64404932     0.29400
C512        C  0.32198555  0.27018839  0.64633749    -0.21400
C513        C  0.34925566  0.28412447  0.64388039    -0.09500
C514        C  0.37515779  0.26834778  0.63856527     0.29400
F515        F  0.40204490  0.28097226  0.63642577    -0.20000
H516        H  0.39392552  0.22737854  0.63326344     0.17800
H517        H  0.30157891  0.28184287  0.64945873     0.17800
F518        F  0.29323329  0.22898406  0.64522421    -0.20000
C519        C  0.32453518  0.15841567  0.75885962    -0.21400
C520        C  0.35233520  0.15404313  0.77202260    -0.09500
C521        C  0.37736722  0.15042568  0.75353962     0.29400
C522        C  0.37438408  0.15114202  0.72260470    -0.21400
C523        C  0.34655090  0.15569887  0.70944095    -0.09500
C524        C  0.32160312  0.15946757  0.72799331     0.29400
F525        F  0.29416624  0.16359643  0.71657917    -0.20000
H526        H  0.30479690  0.16075313  0.77248429     0.17800
H527        H  0.39408367  0.14881789  0.70891456     0.17800
F528        F  0.40488903  0.14725292  0.76522963    -0.20000
C529        C  0.36138916  0.23350677  0.87355143    -0.21400
C530        C  0.35973564  0.21965865  0.84601490    -0.09500
C531        C  0.35771907  0.23557930  0.81985415     0.29400
C532        C  0.35652331  0.26473341  0.82139304    -0.21400
C533        C  0.35765597  0.27859981  0.84892522    -0.09500
C534        C  0.36028477  0.26271387  0.87508451     0.29400
F535        F  0.36044835  0.27530834  0.90220078    -0.20000
H536        H  0.36255583  0.22165489  0.89397883     0.17800
H537        H  0.35501563  0.27654242  0.80095571     0.17800
F538        F  0.35746570  0.22300822  0.79271492    -0.20000
C539        C  0.22672154  0.14343674  0.66230568    -0.21400
C540        C  0.21060008  0.16006352  0.64258120    -0.09500
C541        C  0.22555760  0.17574567  0.62091859     0.29400
C542        C  0.25657500  0.17538790  0.61966985    -0.21400
C543        C  0.27272768  0.15916010  0.63980443    -0.09500
C544        C  0.25767385  0.14268372  0.66070201     0.29400
F545        F  0.27290511  0.12564869  0.67922847    -0.20000
H546        H  0.21527985  0.13100775  0.67884382     0.17800
H547        H  0.26802866  0.18789625  0.60321444     0.17800
F548        F  0.21015884  0.19158064  0.60132360    -0.20000
C549        C  0.11309657  0.24346863  0.64523272    -0.21400
C550        C  0.14012368  0.22878499  0.64661877    -0.09500
C551        C  0.16675386  0.24405336  0.64863821     0.29400
C552        C  0.16616941  0.27309390  0.65054766    -0.21400
C553        C  0.13920260  0.28772189  0.65042345    -0.09500
C554        C  0.11255412  0.27270511  0.64711445     0.29400
F555        F  0.08597052  0.28605884  0.64719619    -0.20000
H556        H  0.09226319  0.23226803  0.64381196     0.17800
H557        H  0.18705709  0.28421003  0.65212733     0.17800
F558        F  0.19355081  0.23112541  0.64833842    -0.20000
C559        C  0.26172526  0.33976504  0.67555382    -0.21400
C560        C  0.27625740  0.34936489  0.64988041    -0.09500
C561        C  0.25844942  0.35862256  0.62604848     0.29400
C562        C  0.22743293  0.35956282  0.62886020    -0.21400
C563        C  0.21314630  0.35107328  0.65521868    -0.09500
C564        C  0.23094836  0.34067763  0.67838508     0.29400
F565        F  0.21930733  0.33182459  0.70445535    -0.20000
H566        H  0.27380330  0.33163068  0.69415091     0.17800
H567        H  0.21459706  0.36644942  0.60996823     0.17800
F568        F  0.27056077  0.36575784  0.59948666    -0.20000
C569        C  0.17005030  0.35669640  0.74405353    -0.21400
C570        C  0.14339277  0.35039240  0.72951394    -0.09500
C571        C  0.11826203  0.34308844  0.74628834     0.29400
C572        C  0.12014680  0.34147611  0.77725756    -0.21400
C573        C  0.14715916  0.34682951  0.79164581    -0.09500
C574        C  0.17213558  0.35451659  0.77492477     0.29400
F575        F  0.19817153  0.36076021  0.78854061    -0.20000
H576        H  0.18905910  0.36391236  0.73154183     0.17800
H577        H  0.10067743  0.33567628  0.79004026     0.17800
F578        F  0.09216417  0.33710329  0.73267726    -0.20000
C579        C  0.23632203  0.36868845  0.86293825    -0.21400
C580        C  0.22070196  0.34333454  0.86153683    -0.09500
C581        C  0.23684416  0.31824354  0.85885804     0.29400
C582        C  0.26788258  0.31870031  0.85670532    -0.21400
C583        C  0.28343929  0.34408551  0.85760552    -0.09500
C584        C  0.26735388  0.36912664  0.86098385     0.29400
F585        F  0.28149252  0.39415065  0.86108708    -0.20000
H586        H  0.22444259  0.38828995  0.86465268     0.17800
H587        H  0.27981977  0.29914479  0.85466452     0.17800
F588        F  0.22273032  0.29320044  0.85901586    -0.20000
C589        C  0.12223428  0.15437804  0.76779922    -0.21400
C590        C  0.14993279  0.15744254  0.78174341    -0.09500
C591        C  0.17521196  0.16205400  0.76395645     0.29400
C592        C  0.17263573  0.16361533  0.73296044    -0.21400
C593        C  0.14492814  0.16041119  0.71901587    -0.09500
C594        C  0.11967492  0.15574182  0.73687472     0.29400
F595        F  0.09229874  0.15322424  0.72464728    -0.20000
H596        H  0.10230660  0.15126289  0.78092548     0.17800
H597        H  0.19257191  0.16660802  0.71984321     0.17800
F598        F  0.20260821  0.16385546  0.77627099    -0.20000
C599        C  0.27077814  0.12790812  0.85023362    -0.21400
C600        C  0.28634270  0.15329505  0.84910650    -0.09500
C601        C  0.27027372  0.17847451  0.85028874     0.29400
C602        C  0.23924858  0.17815438  0.85180723    -0.21400
C603        C  0.22360843  0.15279249  0.85236686    -0.09500
C604        C  0.23972948  0.12757784  0.85177262     0.29400
F605        F  0.22555106  0.10258136  0.85130189    -0.20000
H606        H  0.28263037  0.10825761  0.84904603     0.17800
H607        H  0.22744305  0.19783553  0.85283646     0.17800
F608        F  0.28451456  0.20344985  0.85075067    -0.20000
C609        C  0.14711233  0.26215491  0.88676670    -0.21400
C610        C  0.14615137  0.27757797  0.86030711    -0.09500
C611        C  0.14492005  0.26338728  0.83290562     0.29400
C612        C  0.14611761  0.23428171  0.83199182    -0.21400
C613        C  0.14817771  0.21883461  0.85833182    -0.09500
C614        C  0.14814086  0.23294485  0.88585218     0.29400
F615        F  0.15061274  0.21862651  0.91170208    -0.20000
H616        H  0.14818428  0.27276557  0.90807475     0.17800
H617        H  0.14540753  0.22374881  0.81061619     0.17800
F618        F  0.14221879  0.27762480  0.80701380    -0.20000
C619        C  0.09737869  0.10358849  0.87212484    -0.21400
C620        C  0.12090067  0.11942264  0.88416132    -0.09500
C621        C  0.12608987  0.11734865  0.91508153     0.29400
C622        C  0.10937284  0.09900613  0.93271997    -0.21400
C623        C  0.08674489  0.08264512  0.92015102    -0.09500
C624        C  0.08082277  0.08535541  0.88964510     0.29400
F625        F  0.05921234  0.07005878  0.87632171    -0.20000
H626        H  0.09081686  0.10513204  0.84921827     0.17800
H627        H  0.11413142  0.09771470  0.95626210     0.17800
F628        F  0.14745301  0.13302072  0.92831001    -0.20000
C629        C  0.08524813  0.40181797  0.64088324    -0.21400
C630        C  0.10989415  0.38746180  0.62879284    -0.09500
C631        C  0.11555568  0.39029191  0.59802480     0.29400
C632        C  0.09826713  0.40808184  0.58058406    -0.21400
C633        C  0.07429393  0.42285119  0.59300002    -0.09500
C634        C  0.06778304  0.41931107  0.62336976     0.29400
F635        F  0.04494556  0.43309817  0.63661239    -0.20000
H636        H  0.07855368  0.39935138  0.66375700     0.17800
H637        H  0.10353428  0.41012605  0.55715744     0.17800
F638        F  0.13783769  0.37576318  0.58465999    -0.20000
C639        C  0.36354976  0.11387715  0.57916788    -0.21400
C640        C  0.37508905  0.12775118  0.60430435    -0.09500
C641        C  0.40557145  0.12415227  0.61064083     0.29400
C642        C  0.42285481  0.10526937  0.59413862    -0.21400
C643        C  0.41057841  0.09022067  0.57031469    -0.09500
C644        C  0.38081375  0.09523056  0.56260016     0.29400
F645        F  0.36767165  0.08142563  0.53978337    -0.20000
H646        H  0.34109234  0.11719182  0.57173502     0.17800
H647        H  0.44588919  0.10223860  0.60019794     0.17800
F648        F  0.41856029  0.13832123  0.63335442    -0.20000
C649        C  0.08000254  0.11941745  0.62896761    -0.21400
C650        C  0.10573174  0.13146016  0.61659175    -0.09500
C651        C  0.11176644  0.12610665  0.58619964     0.29400
C652        C  0.09514831  0.10628003  0.57034665    -0.21400
C653        C  0.07114741  0.09244394  0.58378873    -0.09500
C654        C  0.06308513  0.10008490  0.61302040     0.29400
F655        F  0.03950974  0.08831709  0.62695557    -0.20000
H656        H  0.07262018  0.12472731  0.65117121     0.17800
H657        H  0.10116236  0.10166406  0.54748554     0.17800
F658        F  0.13399775  0.13967037  0.57181754    -0.20000
C659        C  0.41321125  0.36894504  0.89749519    -0.21400
C660        C  0.38718991  0.37757203  0.88267485    -0.09500
C661        C  0.37987373  0.40630256  0.88340909     0.29400
C662        C  0.39694657  0.42522486  0.89977330    -0.21400
C663        C  0.42237988  0.41628812  0.91470956    -0.09500
C664        C  0.43071955  0.38815985  0.91313673     0.29400
F665        F  0.45555497  0.37919963  0.92719245    -0.20000
H666        H  0.42080834  0.34760635  0.89675544     0.17800
H667        H  0.39053935  0.44703759  0.90043641     0.17800
F668        F  0.35613653  0.41617102  0.86816905    -0.20000
C669        C  0.41455082  0.10573399  0.86089536    -0.21400
C670        C  0.39089494  0.12117466  0.87346227    -0.09500
C671        C  0.38628434  0.11915906  0.90449608     0.29400
C672        C  0.40291316  0.10049256  0.92161194    -0.21400
C673        C  0.42546014  0.08423868  0.90861327    -0.09500
C674        C  0.43153280  0.08752571  0.87811167     0.29400
F675        F  0.45325018  0.07257105  0.86440516    -0.20000
H676        H  0.42062016  0.10763744  0.83778817     0.17800
H677        H  0.39818627  0.09882173  0.94518497     0.17800
F678        F  0.36532302  0.13498927  0.91833110    -0.20000
C679        C  0.10797598  0.39986554  0.94208477    -0.21400
C680        C  0.08166992  0.41099724  0.93044547    -0.09500
C681        C  0.07145983  0.40105669  0.90282898     0.29400
C682        C  0.08870315  0.38248992  0.88615575    -0.21400
C683        C  0.11694399  0.37394686  0.89605860    -0.09500
C684        C  0.12520972  0.38114776  0.92536904     0.29400
F685        F  0.14976582  0.37011321  0.93811982    -0.20000
H686        H  0.11562363  0.40598194  0.96395205     0.17800
H687        H  0.07984784  0.37515636  0.86520405     0.17800
F688        F  0.04509303  0.40961480  0.89148259    -0.20000
C689        C  0.36670799  0.39360226  0.58688344    -0.21400
C690        C  0.37895276  0.38147418  0.61257654    -0.09500
C691        C  0.40964524  0.38527548  0.61758544     0.29400
C692        C  0.42624778  0.40360697  0.59981489    -0.21400
C693        C  0.41310856  0.41743699  0.57570402    -0.09500
C694        C  0.38337189  0.41133419  0.56879823     0.29400
F695        F  0.36973599  0.42304587  0.54510683    -0.20000
H696        H  0.34420692  0.38933535  0.58009818     0.17800
H697        H  0.44943179  0.40704800  0.60497891     0.17800
F698        F  0.42361243  0.37144835  0.63980474    -0.20000
C699        C  0.43014995  0.93878083  0.05882606     0.42400
N700        N  0.45935720  0.97344187  0.05044868     0.01200
C701        C  0.47003437  0.54989008  0.42023414    -0.06600
H702        H  0.48333072  0.94301047  0.40613414     0.06700
C703        C  0.07446452  0.94845734  0.47335728    -0.07000
Co704      Co  0.44486509  0.00219585  0.49314389     0.74200
N705        N  0.47226593  0.96953761  0.44364683    -0.26200
Co706      Co  0.00549625  0.99981645  0.44619320     0.74100
C707        C  0.06571356  0.93372036  0.44610239     0.42500
N708        N  0.04817992  0.97364354  0.04130454     0.00900
N709        N  0.03749643  0.96932122  0.45255163     0.01000
N710        N  0.43040870  0.55102809  0.45131086    -0.47000
H711        H  0.40548471  0.94612559  0.01450225     0.06700
N712        N  0.44895305  0.97067282  0.46145220     0.01200
N713        N  0.03854785  0.53010604  0.44945016     0.01000
C714        C  0.06949520  0.56263436  0.43847960     0.42600
N715        N  0.02492604  0.97453606  0.05919795    -0.25600
C716        C  0.42165689  0.55437463  0.02670640    -0.06500
N717        N  0.45317480  0.95358679  0.06999652    -0.46700
N718        N  0.04559723  0.54837344  0.42862682    -0.47000
C719        C  0.42849252  0.56873042  0.05462714     0.42400
N720        N  0.44969473  0.53149571  0.45914285     0.01200
N721        N  0.02460128  0.53507838  0.05629036    -0.25600
N722        N  0.44162699  0.97277993  0.02715838    -0.26100
N723        N  0.04797452  0.53465211  0.03848192     0.00900
H724        H  0.01123857  0.56164703  0.09248320     0.06800
H725        H  0.09530216  0.55614509  0.48216786     0.06800
N726        N  0.47292340  0.53033246  0.44121926    -0.26200
N727        N  0.05571614  0.97019086  0.47545912    -0.25800
N728        N  0.45900752  0.53469106  0.04819671     0.01200
C729        C  0.43979509  0.93640590  0.43217157     0.43000
C730        C  0.02839281  0.95545278  0.08058282    -0.07000
N731        N  0.05662798  0.53114290  0.47244697    -0.25800
H732        H  0.09225008  0.94397718  0.48868771     0.06800
N733        N  0.42867746  0.95161747  0.45493572    -0.47000
H734        H  0.01304235  0.95206315  0.09873477     0.06800
C735        C  0.05532980  0.56989294  0.06747507     0.42500
C736        C  0.42255434  0.95155103  0.03030590    -0.06500
Co737      Co  0.49182006  0.50445019  0.05417080     0.73800
N738        N  0.06802790  0.95481039  0.04953509    -0.46700
C739        C  0.44174156  0.56363851  0.42691047     0.42700
N740        N  0.45191717  0.55528941  0.06672805    -0.46700
Co741      Co  0.05287519  0.50247073  0.00699717     0.73900
C742        C  0.07691463  0.55121689  0.46767768    -0.07100
C743        C  0.46855124  0.94835913  0.42431279    -0.06600
N744        N  0.44147081  0.53364595  0.02482072    -0.26100
N745        N  0.04284593  0.94808105  0.43443041    -0.46900
H746        H  0.48558469  0.55336463  0.40226899     0.06700
C747        C  0.02713291  0.55658110  0.07523261    -0.07000
Cl748      Cl  0.99879388  0.50226548  0.00012979    -0.50000
C749        C  0.05711274  0.94238901  0.07418993     0.42500
H750        H  0.40435780  0.55819222  0.01066574     0.06700
N751        N  0.06701173  0.55503553  0.04451346    -0.46700
C752        C  0.13974900  0.63907006  0.36494667     0.86400
C753        C  0.17345041  0.63485968  0.36862965    -0.53900
C754        C  0.19051158  0.65306288  0.35254642     0.09300
C755        C  0.17216222  0.67379713  0.33405167     0.20300
C756        C  0.13435058  0.66998630  0.37265320    -0.54600
C757        C  0.15114695  0.68811881  0.35639497     0.09400
C758        C  0.13520179  0.63720100  0.33085280    -0.54100
C759        C  0.15193769  0.65546541  0.31473113     0.10000
H760        H  0.18287069  0.61905289  0.38301499     0.14500
H761        H  0.18571200  0.68881602  0.32110546     0.00200
H762        H  0.11795018  0.67689188  0.38887457     0.14800
H763        H  0.12113287  0.62228534  0.31961269     0.14600
C764        C  0.13677435  0.85626736  0.37556249     0.86400
C765        C  0.13214440  0.86163195  0.34209301    -0.53900
C766        C  0.14885040  0.84508251  0.32401779     0.09300
C767        C  0.16912155  0.82481383  0.34057170     0.20300
C768        C  0.13140519  0.82482460  0.37953889    -0.54600
C769        C  0.14811309  0.80839327  0.36102224     0.09400
C770        C  0.17064070  0.86019510  0.37952408    -0.54100
C771        C  0.18758621  0.84329984  0.36156737     0.10000
H772        H  0.11765392  0.87758160  0.33308964     0.14500
H773        H  0.18268622  0.81158353  0.32538297     0.00200
H774        H  0.11532897  0.81637770  0.39515404     0.14800
H775        H  0.18047801  0.87517558  0.39473503     0.14600
C776        C  0.12897168  0.86773210  0.14734316     0.86400
C777        C  0.16280043  0.87135403  0.14261089    -0.53900
C778        C  0.18005383  0.85252270  0.15767700     0.09300
C779        C  0.16151335  0.83233178  0.17672301     0.20300
C780        C  0.12279738  0.83695706  0.13958360    -0.54600
C781        C  0.13985577  0.81843717  0.15491280     0.09400
C782        C  0.12522730  0.86962754  0.18148482    -0.54100
C783        C  0.14228017  0.85110589  0.19660960     0.10000
H784        H  0.17212027  0.88758381  0.12864572     0.14500
H785        H  0.17420831  0.81675138  0.18951565     0.00200
H786        H  0.10692657  0.83055075  0.12275909     0.14800
H787        H  0.11183451  0.88486389  0.19330667     0.14600
C788        C  0.12649508  0.64965244  0.13551634     0.86400
C789        C  0.12422499  0.64533322  0.16955171    -0.53900
C790        C  0.14268114  0.66194434  0.18596221     0.09300
C791        C  0.16221115  0.68107292  0.16680058     0.20300
C792        C  0.12174535  0.68118394  0.13102567    -0.54600
C793        C  0.14052342  0.69772228  0.14731118     0.09400
C794        C  0.15971831  0.64469435  0.12900894    -0.54100
C795        C  0.17816061  0.66135751  0.14513025     0.10000
H796        H  0.11091973  0.62923071  0.17989876     0.14500
H797        H  0.17742695  0.69423360  0.18018186     0.00200
H798        H  0.10524079  0.68956687  0.11595637     0.14800
H799        H  0.16809951  0.62911435  0.11348050     0.14600
C800        C  0.37076834  0.64004383  0.35468789     0.86400
C801        C  0.37291722  0.63662509  0.32046583    -0.53900
C802        C  0.35471442  0.65409602  0.30497716     0.09300
C803        C  0.33582572  0.67322062  0.32497651     0.20300
C804        C  0.37631495  0.67137219  0.36046433    -0.54600
C805        C  0.35822904  0.68872060  0.34462142     0.09400
C806        C  0.33742050  0.63574725  0.36112496    -0.54100
C807        C  0.31914345  0.65342325  0.34599373     0.10000
H808        H  0.38598652  0.62086769  0.30912140     0.14500
H809        H  0.32096293  0.68736975  0.31247897     0.00200
H810        H  0.39336052  0.67907534  0.37542269     0.14800
H811        H  0.32902536  0.62026305  0.37658557     0.14600
C812        C  0.35551705  0.64604869  0.12448481     0.86400
C813        C  0.32154615  0.64303930  0.12052053    -0.53900
C814        C  0.30534074  0.65963406  0.13906559     0.09300
C815        C  0.32397701  0.67769536  0.16004600     0.20300
C816        C  0.36164190  0.67752784  0.12105998    -0.54600
C817        C  0.34488527  0.69418272  0.13946285     0.09400
C818        C  0.36016645  0.64018079  0.15781462    -0.54100
C819        C  0.34403679  0.65696383  0.17649159     0.10000
H820        H  0.31059973  0.62844561  0.10572283     0.14500
H821        H  0.31069359  0.69110926  0.17519433     0.00200
H822        H  0.37741927  0.68581339  0.10505725     0.14800
H823        H  0.37484992  0.62395824  0.16594968     0.14600
C824        C  0.36017394  0.86339978  0.13349811     0.86400
C825        C  0.36577175  0.86856554  0.16691194    -0.53900
C826        C  0.34965529  0.85162647  0.18524513     0.09300
C827        C  0.32937346  0.83108069  0.16848645     0.20300
C828        C  0.36597499  0.83210195  0.12863469    -0.54600
C829        C  0.34979633  0.81511974  0.14680479     0.09400
C830        C  0.32604551  0.86678617  0.13074231    -0.54100
C831        C  0.30967594  0.84948232  0.14858459     0.10000
H832        H  0.38058749  0.88461311  0.17534304     0.14500
H833        H  0.31737589  0.81682567  0.18363583     0.00200
H834        H  0.38064137  0.82417338  0.11132006     0.14800
H835        H  0.31570878  0.88295466  0.11768904     0.14600
C836        C  0.36774820  0.85749798  0.36467262     0.86400
C837        C  0.33440745  0.86027776  0.37201311    -0.53900
C838        C  0.31629383  0.84431371  0.35452709     0.09300
C839        C  0.33329190  0.82647400  0.33151261     0.20300
C840        C  0.37373087  0.82580618  0.36733662    -0.54600
C841        C  0.35568312  0.80959379  0.34998180     0.09400
C842        C  0.37028218  0.86343098  0.33123412    -0.54100
C843        C  0.35232005  0.84738672  0.31384051     0.10000
H844        H  0.32594376  0.87357313  0.38976129     0.14500
H845        H  0.31870038  0.81335112  0.31732020     0.00200
H846        H  0.39037409  0.81652305  0.38148772     0.14800
H847        H  0.38495320  0.87926015  0.32211535     0.14600
C848        C  0.32430269  0.85362785  0.23478485    -0.21400
C849        C  0.35081083  0.85303108  0.21825678    -0.09500
C850        C  0.37798076  0.85227058  0.23350018     0.29400
C851        C  0.37835818  0.85082037  0.26462532    -0.21400
C852        C  0.35169948  0.84995867  0.28098875    -0.09500
C853        C  0.32461718  0.85183397  0.26581530     0.29400
F854        F  0.29850328  0.85260784  0.28099102    -0.20000
H855        H  0.30327506  0.85581655  0.22370493     0.17800
H856        H  0.39950125  0.84957198  0.27594105     0.17800
F857        F  0.40407377  0.85177819  0.21830899    -0.20000
C858        C  0.37362331  0.73919090  0.13663090    -0.21400
C859        C  0.34630762  0.72525513  0.13972211    -0.09500
C860        C  0.32038636  0.74123113  0.14410724     0.29400
C861        C  0.32198417  0.77024172  0.14641768    -0.21400
C862        C  0.34925850  0.78417565  0.14399226    -0.09500
C863        C  0.37516475  0.76839519  0.13870988     0.29400
F864        F  0.40205796  0.78101601  0.13662334    -0.20000
H865        H  0.39393230  0.72742651  0.13339980     0.17800
H866        H  0.30157740  0.78189956  0.14952346     0.17800
F867        F  0.29322787  0.72903720  0.14524606    -0.20000
C868        C  0.32447560  0.65837865  0.25885037    -0.21400
C869        C  0.35227245  0.65401097  0.27202300    -0.09500
C870        C  0.37730981  0.65039898  0.25354549     0.29400
C871        C  0.37433749  0.65112584  0.22260892    -0.21400
C872        C  0.34650980  0.65568749  0.20943534    -0.09500
C873        C  0.32155445  0.65944213  0.22798194     0.29400
F874        F  0.29412199  0.66357714  0.21656040    -0.20000
H875        H  0.30473293  0.66071138  0.27246957     0.17800
H876        H  0.39404282  0.64881063  0.20892547     0.17800
F877        F  0.40482845  0.64722726  0.26524273    -0.20000
C878        C  0.36128238  0.73352104  0.37353138    -0.21400
C879        C  0.35963611  0.71967866  0.34599126    -0.09500
C880        C  0.35761001  0.73560636  0.31983551     0.29400
C881        C  0.35641796  0.76476232  0.32138393    -0.21400
C882        C  0.35755609  0.77862236  0.34892126    -0.09500
C883        C  0.36017567  0.76272712  0.37507435     0.29400
F884        F  0.36033273  0.77531222  0.40219539    -0.20000
H885        H  0.36244988  0.72166440  0.39395558     0.17800
H886        H  0.35491295  0.77657721  0.30095032     0.17800
F887        F  0.35734982  0.72304128  0.29269303    -0.20000
C888        C  0.22673959  0.64343723  0.16227745    -0.21400
C889        C  0.21060610  0.66004295  0.14254431    -0.09500
C890        C  0.22554804  0.67570449  0.12085339     0.29400
C891        C  0.25656540  0.67537092  0.11960639    -0.21400
C892        C  0.27272987  0.65917878  0.13976373    -0.09500
C893        C  0.25769036  0.64269734  0.16066587     0.29400
F894        F  0.27293437  0.62566525  0.17918459    -0.20000
H895        H  0.21530849  0.63101401  0.17882783     0.17800
H896        H  0.26800918  0.68787073  0.10313669     0.17800
F897        F  0.21013452  0.69149911  0.10123282    -0.20000
C898        C  0.11320331  0.74350611  0.14505685    -0.21400
C899        C  0.14020938  0.72879730  0.14653640    -0.09500
C900        C  0.16685275  0.74404544  0.14856953     0.29400
C901        C  0.16629628  0.77309138  0.15040980    -0.21400
C902        C  0.13934589  0.78774552  0.15020429    -0.09500
C903        C  0.11268892  0.77274579  0.14686923     0.29400
F904        F  0.08611752  0.78611987  0.14686365    -0.20000
H905        H  0.09235935  0.73232536  0.14361691     0.17800
H906        H  0.18719305  0.78419005  0.15200509     0.17800
F907        F  0.19363691  0.73109376  0.14834702    -0.20000
C908        C  0.26176188  0.84011619  0.17563439    -0.21400
C909        C  0.27631898  0.84950039  0.14988836    -0.09500
C910        C  0.25854856  0.85859908  0.12595685     0.29400
C911        C  0.22752983  0.85955494  0.12871879    -0.21400
C912        C  0.21322281  0.85124524  0.15512656    -0.09500
C913        C  0.23098618  0.84106756  0.17842750     0.29400
F914        F  0.21927972  0.83249415  0.20457911    -0.20000
H915        H  0.27383852  0.83212647  0.19432015     0.17800
H916        H  0.21470136  0.86630429  0.10976121     0.17800
F917        F  0.27071067  0.86555017  0.09936072    -0.20000
C918        C  0.16993576  0.85713073  0.24391895    -0.21400
C919        C  0.14346365  0.85028113  0.22931770    -0.09500
C920        C  0.11849046  0.84238400  0.24601281     0.29400
C921        C  0.12034710  0.84076160  0.27698175    -0.21400
C922        C  0.14718421  0.84669698  0.29143609    -0.09500
C923        C  0.17200331  0.85495030  0.27479220     0.29400
F924        F  0.19784715  0.86172786  0.28848805    -0.20000
H925        H  0.18880007  0.86474861  0.23145260     0.17800
H926        H  0.10099933  0.83452784  0.28971424     0.17800
F927        F  0.09257684  0.83586595  0.23232289    -0.20000
C928        C  0.23626442  0.86876618  0.36279627    -0.21400
C929        C  0.22064738  0.84340755  0.36141375    -0.09500
C930        C  0.23679918  0.81831551  0.35881165     0.29400
C931        C  0.26783961  0.81877274  0.35669961    -0.21400
C932        C  0.28339337  0.84415943  0.35757144    -0.09500
C933        C  0.26730228  0.86920410  0.36088920     0.29400
F934        F  0.28144347  0.89422706  0.36097725    -0.20000
H935        H  0.22437997  0.88836845  0.36445991     0.17800
H936        H  0.27978157  0.79921540  0.35470928     0.17800
F937        F  0.22269144  0.79327001  0.35900452    -0.20000
C938        C  0.12221040  0.65439125  0.26778187    -0.21400
C939        C  0.14990625  0.65742309  0.28173722    -0.09500
C940        C  0.17519768  0.66201576  0.26396087     0.29400
C941        C  0.17263505  0.66359674  0.23296353    -0.21400
C942        C  0.14492863  0.66042853  0.21900805    -0.09500
C943        C  0.11966394  0.65577600  0.23685710     0.29400
F944        F  0.09228855  0.65329681  0.22461919    -0.20000
H945        H  0.10227490  0.65129022  0.28090016     0.17800
H946        H  0.19257831  0.66657624  0.21985341     0.17800
F947        F  0.20259075  0.66378198  0.27628835    -0.20000
C948        C  0.27072347  0.62790865  0.35028873    -0.21400
C949        C  0.28628593  0.65329608  0.34913452    -0.09500
C950        C  0.27021317  0.67847431  0.35029456     0.29400
C951        C  0.23918822  0.67815264  0.35181298    -0.21400
C952        C  0.22354933  0.65279082  0.35239312    -0.09500
C953        C  0.23967349  0.62757679  0.35182603     0.29400
F954        F  0.22549758  0.60257862  0.35137730    -0.20000
H955        H  0.28257812  0.60825855  0.34912041     0.17800
H956        H  0.22738161  0.69783390  0.35282338     0.17800
F957        F  0.28445005  0.70345177  0.35073193    -0.20000
C958        C  0.14703969  0.76218531  0.38668433    -0.21400
C959        C  0.14611492  0.77758967  0.36021074    -0.09500
C960        C  0.14488839  0.76337727  0.33282104     0.29400
C961        C  0.14607248  0.73427074  0.33193229    -0.21400
C962        C  0.14810965  0.71884171  0.35828585    -0.09500
C963        C  0.14804995  0.73297280  0.38579497     0.29400
F964        F  0.15048189  0.71867187  0.41165966    -0.20000
H965        H  0.14809640  0.77281159  0.40798440     0.17800
H966        H  0.14537185  0.72372299  0.31056458     0.17800
F967        F  0.14220388  0.77759398  0.30691502    -0.20000
C968        C  0.09734435  0.60356396  0.37213749    -0.21400
C969        C  0.12083404  0.61943955  0.38417330    -0.09500
C970        C  0.12600129  0.61740526  0.41510165     0.29400
C971        C  0.10929494  0.59906178  0.43275053    -0.21400
C972        C  0.08669914  0.58266189  0.42018262    -0.09500
C973        C  0.08079640  0.58533419  0.38966839     0.29400
F974        F  0.05921939  0.56999545  0.37634507    -0.20000
H975        H  0.09080618  0.60506554  0.34922092     0.17800
H976        H  0.11403600  0.59779835  0.45629845     0.17800
F977        F  0.14733611  0.63311435  0.42832650    -0.20000
C978        C  0.08536590  0.90191497  0.14082529    -0.21400
C979        C  0.10995210  0.88750167  0.12868612    -0.09500
C980        C  0.11556454  0.89031518  0.09790859     0.29400
C981        C  0.09826226  0.90811046  0.08049227    -0.21400
C982        C  0.07433790  0.92291583  0.09295199    -0.09500
C983        C  0.06789587  0.91942326  0.12333906     0.29400
F984        F  0.04513094  0.93328281  0.13662360    -0.20000
H985        H  0.07872066  0.89949411  0.16371698     0.17800
H986        H  0.10348247  0.91013497  0.05705301     0.17800
F987        F  0.13781792  0.87577010  0.08451525    -0.20000
C988        C  0.36354563  0.61394525  0.07913379    -0.21400
C989        C  0.37508995  0.62780626  0.10427862    -0.09500
C990        C  0.40556363  0.62416839  0.11062896     0.29400
C991        C  0.42282773  0.60526275  0.09413417    -0.21400
C992        C  0.41054124  0.59022347  0.07030707    -0.09500
C993        C  0.38078746  0.59526783  0.06258079     0.29400
F994        F  0.36763411  0.58146685  0.03976764    -0.20000
H995        H  0.34109858  0.61729000  0.07168438     0.17800
H996        H  0.44585517  0.60220507  0.10020430     0.17800
F997        F  0.41856058  0.63831734  0.13335173    -0.20000
C998        C  0.07999504  0.61944403  0.12897709    -0.21400
C999        C  0.10572255  0.63148481  0.11659428    -0.09500
C1000       C  0.11174473  0.62614080  0.08619883     0.29400
C1001       C  0.09511436  0.60632615  0.07034524    -0.21400
C1002       C  0.07111419  0.59249304  0.08379121    -0.09500
C1003       C  0.06306547  0.60012243  0.11302912     0.29400
F1004       F  0.03949171  0.58835479  0.12696759    -0.20000
H1005       H  0.07262081  0.62474831  0.15118456     0.17800
H1006       H  0.10111917  0.60171631  0.04748034     0.17800
F1007       F  0.13397785  0.63970032  0.07181492    -0.20000
C1008       C  0.41313927  0.86892220  0.39759980    -0.21400
C1009       C  0.38715841  0.87757053  0.38272194    -0.09500
C1010       C  0.37988701  0.90631152  0.38340831     0.29400
C1011       C  0.39696777  0.92522973  0.39976692    -0.21400
C1012       C  0.42236284  0.91627604  0.41475384    -0.09500
C1013       C  0.43065625  0.88813238  0.41324048     0.29400
F1014       F  0.45545460  0.87915484  0.42734932    -0.20000
H1015       H  0.42069634  0.84756988  0.39690900     0.17800
H1016       H  0.39059569  0.94705243  0.40038808     0.17800
F1017       F  0.35618631  0.91619488  0.36812305    -0.20000
C1018       C  0.41452618  0.60578316  0.36092650    -0.21400
C1019       C  0.39086725  0.62122308  0.37348943    -0.09500
C1020       C  0.38627261  0.61922420  0.40452771     0.29400
C1021       C  0.40290994  0.60056424  0.42164913    -0.21400
C1022       C  0.42545280  0.58430195  0.40865173    -0.09500
C1023       C  0.43151762  0.58758413  0.37814732     0.29400
F1024       F  0.45323511  0.57263000  0.36444080    -0.20000
H1025       H  0.42058905  0.60767842  0.33781680     0.17800
H1026       H  0.39819089  0.59890273  0.44522443     0.17800
F1027       F  0.36531731  0.63506264  0.41836135    -0.20000
C1028       C  0.10783003  0.89976093  0.44190103    -0.21400
C1029       C  0.08160030  0.91102753  0.43023813    -0.09500
C1030       C  0.07144790  0.90124670  0.40253388     0.29400
C1031       C  0.08868314  0.88270885  0.38581355    -0.21400
C1032       C  0.11685007  0.87401002  0.39577372    -0.09500
C1033       C  0.12504235  0.88105293  0.42514742     0.29400
F1034       F  0.14953025  0.86989112  0.43790550    -0.20000
H1035       H  0.11542851  0.90575614  0.46382343     0.17800
H1036       H  0.07985272  0.87549295  0.36480803     0.17800
F1037       F  0.04514078  0.90992546  0.39115247    -0.20000
C1038       C  0.36681126  0.89354117  0.08687520    -0.21400
C1039       C  0.37903511  0.88148313  0.11261535    -0.09500
C1040       C  0.40971629  0.88532505  0.11765578     0.29400
C1041       C  0.42631773  0.90364278  0.09986823    -0.21400
C1042       C  0.41318990  0.91741650  0.07571382    -0.09500
C1043       C  0.38347283  0.91126165  0.06877755     0.29400
F1044       F  0.36985068  0.92291188  0.04504408    -0.20000
H1045       H  0.34432588  0.88922966  0.08006763     0.17800
H1046       H  0.44949002  0.90712114  0.10505634     0.17800
F1047       F  0.42367350  0.87155297  0.13992000    -0.20000
C1048       C  0.43008499  0.93880180  0.55882191     0.42400
N1049       N  0.45933494  0.97343154  0.55044429     0.01200
C1050       C  0.47005180  0.54984499  0.92020364    -0.06600
H1051       H  0.48334099  0.94302142  0.90610943     0.06700
C1052       C  0.07449191  0.94850625  0.97346261    -0.07000
Co1053     Co  0.44487022  0.00217914  0.99313833     0.74200
N1054       N  0.47229268  0.96951650  0.94365245    -0.26200
Co1055     Co  0.00551561  0.99980429  0.94619459     0.74100
C1056       C  0.06575491  0.93371611  0.94624094     0.42500
N1057       N  0.04816797  0.97356572  0.54129636     0.00900
N1058       N  0.03753004  0.96932497  0.95259221     0.01000
N1059       N  0.43042255  0.55098689  0.95127855    -0.47000
H1060       H  0.40541625  0.94618103  0.51450862     0.06700
N1061       N  0.44897384  0.97065388  0.96145076     0.01200
N1062       N  0.03857199  0.53011052  0.94943025     0.01000
C1063       C  0.06953485  0.56262171  0.93844165     0.42600
N1064       N  0.02491359  0.97447975  0.55918965    -0.25600
C1065       C  0.42170156  0.55439681  0.52670931    -0.06500
N1066       N  0.45313124  0.95358011  0.56999026    -0.46700
N1067       N  0.04564240  0.54835159  0.92858607    -0.47000
C1068       C  0.42854360  0.56874579  0.55462875     0.42400
N1069       N  0.44971384  0.53146564  0.95912238     0.01200
N1070       N  0.02462581  0.53502492  0.55629787    -0.25600
N1071       N  0.44160003  0.97279153  0.52715698    -0.26100
N1072       N  0.04800179  0.53458573  0.53849337     0.00900
H1073       H  0.01126282  0.56161062  0.59247542     0.06800
H1074       H  0.09530765  0.55617496  0.98215686     0.06800
N1075       N  0.47294460  0.53030033  0.94119989    -0.26200
N1076       N  0.05573998  0.97023746  0.97550514    -0.25800
N1077       N  0.45902836  0.53468059  0.54820907     0.01200
C1078       C  0.43979338  0.93642343  0.93212900     0.43000
C1079       C  0.02836670  0.95540517  0.58058617    -0.07000
N1080       N  0.05663348  0.53117586  0.97243971    -0.25800
H1081       H  0.09225935  0.94405156  0.98882235     0.06800
N1082       N  0.42868257  0.95162154  0.95490612    -0.47000
H1083       H  0.01301201  0.95204195  0.59873955     0.06800
C1084       C  0.05536455  0.56983486  0.56747809     0.42500
C1085       C  0.42249945  0.95158451  0.53030628    -0.06500
Co1086     Co  0.49182007  0.50441183  0.55417456     0.73800
N1087       N  0.06800514  0.95472619  0.54954561    -0.46700
C1088       C  0.44175476  0.56358538  0.92687218     0.42700
N1089       N  0.45195332  0.55528606  0.56673799    -0.46700
Co1090     Co  0.05287075  0.50241075  0.50698857     0.73900
C1091       C  0.07692702  0.55123939  0.96766079    -0.07100
C1092       C  0.46856702  0.94835637  0.92429722    -0.06600
N1093       N  0.44149171  0.53365051  0.52483258    -0.26100
N1094       N  0.04288992  0.94804904  0.93452029    -0.46900
H1095       H  0.48560371  0.55331595  0.90223916     0.06700
C1096       C  0.02716229  0.55653197  0.57523397    -0.07000
Cl1097     Cl  0.99878191  0.50224689  0.50013144    -0.50000
C1098       C  0.05708088  0.94232037  0.57421022     0.42500
H1099       H  0.40441293  0.55822946  0.51066177     0.06700
N1100       N  0.06704455  0.55496724  0.54452128    -0.46700
C1101       C  0.13981952  0.63906084  0.86494301     0.86400
C1102       C  0.17352243  0.63485118  0.86861064    -0.53900
C1103       C  0.19057500  0.65306390  0.85252995     0.09300
C1104       C  0.17221685  0.67380468  0.83405225     0.20300
C1105       C  0.13442253  0.66997281  0.87266792    -0.54600
C1106       C  0.15121124  0.68811339  0.85641211     0.09400
C1107       C  0.13526197  0.63720379  0.83085237    -0.54100
C1108       C  0.15198460  0.65547878  0.81473219     0.10000
H1109       H  0.18295062  0.61903761  0.88298228     0.14500
H1110       H  0.18576015  0.68883161  0.82111006     0.00200
H1111       H  0.11802995  0.67687024  0.88890120     0.14800
H1112       H  0.12120241  0.62227957  0.81961299     0.14600
C1113       C  0.13685004  0.85622564  0.87582691     0.86400
C1114       C  0.13220281  0.86168446  0.84237930    -0.53900
C1115       C  0.14886679  0.84516167  0.82423397     0.09300
C1116       C  0.16912663  0.82482532  0.84071829     0.20300
C1117       C  0.13144054  0.82478109  0.87971444    -0.54600
C1118       C  0.14811931  0.80837827  0.86114404     0.09400
C1119       C  0.17072489  0.86010276  0.87977279    -0.54100
C1120       C  0.18763071  0.84323520  0.86174972     0.10000
H1121       H  0.11770776  0.87767016  0.83345113     0.14500
H1122       H  0.18266386  0.81161212  0.82548835     0.00200
H1123       H  0.11537608  0.81631220  0.89532813     0.14800
H1124       H  0.18060511  0.87504770  0.89499256     0.14600
C1125       C  0.12889492  0.86769834  0.64748730     0.86400
C1126       C  0.16273249  0.87126054  0.64275073    -0.53900
C1127       C  0.17996874  0.85241794  0.65783291     0.09300
C1128       C  0.16137958  0.83230236  0.67693324     0.20300
C1129       C  0.12266651  0.83692213  0.63979127    -0.54600
C1130       C  0.13969626  0.81840662  0.65515200     0.09400
C1131       C  0.12516090  0.86966767  0.68162339    -0.54100
C1132       C  0.14218668  0.85115161  0.69679332     0.10000
H1133       H  0.17206345  0.88746817  0.62876666     0.14500
H1134       H  0.17400498  0.81670186  0.68975450     0.00200
H1135       H  0.10679649  0.83050832  0.62296877     0.14800
H1136       H  0.11180341  0.88496512  0.69339858     0.14600
C1137       C  0.12649696  0.64963588  0.63551718     0.86400
C1138       C  0.12422962  0.64530201  0.66955245    -0.53900
C1139       C  0.14267487  0.66192076  0.68596907     0.09300
C1140       C  0.16218751  0.68106963  0.66681615     0.20300
C1141       C  0.12171908  0.68116670  0.63104402    -0.54600
C1142       C  0.14048248  0.69770927  0.64734065     0.09400
C1143       C  0.15972657  0.64470422  0.62901096    -0.54100
C1144       C  0.17815550  0.66137391  0.64514157     0.10000
H1145       H  0.11093068  0.62919010  0.67989173     0.14500
H1146       H  0.17739161  0.69424065  0.68019973     0.00200
H1147       H  0.10519937  0.68954759  0.61598987     0.14800
H1148       H  0.16812246  0.62912922  0.61348512     0.14600
C1149       C  0.37081786  0.64001959  0.85467704     0.86400
C1150       C  0.37297906  0.63662607  0.82045418    -0.53900
C1151       C  0.35478587  0.65411325  0.80497669     0.09300
C1152       C  0.33589649  0.67322716  0.82498531     0.20300
C1153       C  0.37637327  0.67134189  0.86048429    -0.54600
C1154       C  0.35829946  0.68870587  0.84464818     0.09400
C1155       C  0.33746758  0.63572486  0.86109781    -0.54100
C1156       C  0.31920217  0.65341842  0.84597833     0.10000
H1157       H  0.38604449  0.62087139  0.80910049     0.14500
H1158       H  0.32104095  0.68738911  0.81249561     0.00200
H1159       H  0.39342067  0.67902925  0.87544977     0.14800
H1160       H  0.32906185  0.62022774  0.87653804     0.14600
C1161       C  0.35551773  0.64599241  0.62450532     0.86400
C1162       C  0.32154285  0.64297856  0.62056123    -0.53900
C1163       C  0.30534767  0.65959092  0.63910210     0.09300
C1164       C  0.32399994  0.67766933  0.66005131     0.20300
C1165       C  0.36164043  0.67746529  0.62104362    -0.54600
C1166       C  0.34489659  0.69413554  0.63943731     0.09400
C1167       C  0.36018534  0.64015102  0.65783607    -0.54100
C1168       C  0.34406816  0.65695124  0.67650412     0.10000
H1169       H  0.31059156  0.62837892  0.60577382     0.14500
H1170       H  0.31072888  0.69109807  0.67519529     0.00200
H1171       H  0.37740626  0.68573575  0.60502037     0.14800
H1172       H  0.37487156  0.62393382  0.66597844     0.14600
C1173       C  0.36011204  0.86336222  0.63344105     0.86400
C1174       C  0.36572290  0.86851017  0.66685524    -0.53900
C1175       C  0.34963619  0.85154280  0.68518660     0.09300
C1176       C  0.32937167  0.83098863  0.66841838     0.20300
C1177       C  0.36594309  0.83207330  0.62854537    -0.54600
C1178       C  0.34979408  0.81506476  0.64670979     0.09400
C1179       C  0.32597627  0.86671956  0.63071140    -0.54100
C1180       C  0.30962970  0.84938322  0.64854653     0.10000
H1181       H  0.38051767  0.88457567  0.67528364     0.14500
H1182       H  0.31742965  0.81669879  0.68356642     0.00200
H1183       H  0.38060341  0.82417025  0.61121238     0.14800
H1184       H  0.31562832  0.88290151  0.61769209     0.14600
C1185       C  0.36776822  0.85748897  0.86463508     0.86400
C1186       C  0.33443305  0.86023035  0.87200494    -0.53900
C1187       C  0.31632276  0.84424933  0.85453315     0.09300
C1188       C  0.33332316  0.82642317  0.83150760     0.20300
C1189       C  0.37379099  0.82580477  0.86729947    -0.54600
C1190       C  0.35574913  0.80957163  0.84996382     0.09400
C1191       C  0.37026273  0.86342449  0.83119373    -0.54100
C1192       C  0.35231000  0.84735534  0.81381125     0.10000
H1193       H  0.32597040  0.87351391  0.88976344     0.14500
H1194       H  0.31873814  0.81327445  0.81733664     0.00200
H1195       H  0.39044794  0.81653968  0.88144811     0.14800
H1196       H  0.38490377  0.87927382  0.82206725     0.14600
C1197       C  0.32425534  0.85330829  0.73472528    -0.21400
C1198       C  0.35077823  0.85294469  0.71820627    -0.09500
C1199       C  0.37794586  0.85242889  0.73346383     0.29400
C1200       C  0.37832623  0.85099357  0.76459153    -0.21400
C1201       C  0.35167109  0.84991220  0.78095039    -0.09500
C1202       C  0.32458023  0.85154090  0.76576085     0.29400
F1203       F  0.29844845  0.85210429  0.78091629    -0.20000
H1204       H  0.30321961  0.85529358  0.72364441     0.17800
H1205       H  0.39947740  0.84992791  0.77590994     0.17800
F1206       F  0.40405215  0.85215549  0.71829049    -0.20000
C1207       C  0.37362662  0.73914169  0.63650596    -0.21400
C1208       C  0.34631694  0.72520497  0.63965243    -0.09500
C1209       C  0.32039758  0.74117875  0.64404464     0.29400
C1210       C  0.32199325  0.77018806  0.64632869    -0.21400
C1211       C  0.34926310  0.78412426  0.64386995    -0.09500
C1212       C  0.37516536  0.76834768  0.63855525     0.29400
F1213       F  0.40205204  0.78097250  0.63641252    -0.20000
H1214       H  0.39393359  0.72737810  0.63325819     0.17800
H1215       H  0.30158636  0.78184242  0.64944890     0.17800
F1216       F  0.29324176  0.72898335  0.64522159    -0.20000
C1217       C  0.32454030  0.65841280  0.75886259    -0.21400
C1218       C  0.35234041  0.65404204  0.77202599    -0.09500
C1219       C  0.37737324  0.65042710  0.75354369     0.29400
C1220       C  0.37439070  0.65114438  0.72260875    -0.21400
C1221       C  0.34655743  0.65570021  0.70944472    -0.09500
C1222       C  0.32160901  0.65946661  0.72799646     0.29400
F1223       F  0.29417243  0.66359572  0.71658180    -0.20000
H1224       H  0.30480145  0.66074826  0.77248683     0.17800
H1225       H  0.39409068  0.64882192  0.70891878     0.17800
F1226       F  0.40489500  0.64725629  0.76523446    -0.20000
C1227       C  0.36138116  0.73351139  0.87355000    -0.21400
C1228       C  0.35973193  0.71966144  0.84601429    -0.09500
C1229       C  0.35771597  0.73558050  0.81985224     0.29400
C1230       C  0.35651798  0.76473478  0.82138906    -0.21400
C1231       C  0.35764731  0.77860294  0.84892045    -0.09500
C1232       C  0.36027408  0.76271852  0.87508100     0.29400
F1233       F  0.36043290  0.77531459  0.90219646    -0.20000
H1234       H  0.36254653  0.72166078  0.89397835     0.17800
H1235       H  0.35501114  0.77654257  0.80095085     0.17800
F1236       F  0.35746529  0.72300772  0.79271383    -0.20000
C1237       C  0.22672671  0.64343862  0.66230788    -0.21400
C1238       C  0.21060568  0.66006411  0.64258170    -0.09500
C1239       C  0.22556414  0.67574648  0.62091989     0.29400
C1240       C  0.25658170  0.67538950  0.61967295    -0.21400
C1241       C  0.27273388  0.65916233  0.63980854    -0.09500
C1242       C  0.25767923  0.64268629  0.66070591     0.29400
F1243       F  0.27290984  0.62565163  0.67923329    -0.20000
H1244       H  0.21528452  0.63100967  0.67884569     0.17800
H1245       H  0.26803587  0.68789767  0.60321772     0.17800
F1246       F  0.21016610  0.69158085  0.60132379    -0.20000
C1247       C  0.11309746  0.74346519  0.64523805    -0.21400
C1248       C  0.14012543  0.72878264  0.64661961    -0.09500
C1249       C  0.16675525  0.74405180  0.64863653     0.29400
C1250       C  0.16616979  0.77309228  0.65054703    -0.21400
C1251       C  0.13920225  0.78771918  0.65042655    -0.09500
C1252       C  0.11255398  0.77270156  0.64712105     0.29400
F1253       F  0.08596992  0.78605445  0.64720742    -0.20000
H1254       H  0.09226443  0.73226369  0.64381971     0.17800
H1255       H  0.18705713  0.78420926  0.65212475     0.17800
F1256       F  0.19355258  0.73112459  0.64833359    -0.20000
C1257       C  0.26172972  0.83974267  0.67553910    -0.21400
C1258       C  0.27626111  0.84936047  0.64987281    -0.09500
C1259       C  0.25845144  0.85863255  0.62604852     0.29400
C1260       C  0.22743500  0.85957118  0.62886260    -0.21400
C1261       C  0.21314880  0.85106501  0.65521556    -0.09500
C1262       C  0.23095285  0.84065175  0.67837174     0.29400
F1263       F  0.21931592  0.83177520  0.70443429    -0.20000
H1264       H  0.27380680  0.83159591  0.69412958     0.17800
H1265       H  0.21459941  0.86646970  0.60997572     0.17800
F1266       F  0.27056005  0.86578416  0.59949059    -0.20000
C1267       C  0.17006069  0.85665753  0.74405432    -0.21400
C1268       C  0.14339150  0.85039601  0.72951563    -0.09500
C1269       C  0.11824616  0.84313998  0.74629240     0.29400
C1270       C  0.12012763  0.84153076  0.77726197    -0.21400
C1271       C  0.14715053  0.84683933  0.79164924    -0.09500
C1272       C  0.17214196  0.85447983  0.77492593     0.29400
F1273       F  0.19819033  0.86068143  0.78853950    -0.20000
H1274       H  0.18908242  0.86384140  0.73154196     0.17800
H1275       H  0.10064691  0.83576611  0.79004561     0.17800
F1276       F  0.09213660  0.83719647  0.73268345    -0.20000
C1277       C  0.23630755  0.86868394  0.86294149    -0.21400
C1278       C  0.22068833  0.84332975  0.86154104    -0.09500
C1279       C  0.23683091  0.81823935  0.85885705     0.29400
C1280       C  0.26786919  0.81869716  0.85669939    -0.21400
C1281       C  0.28342504  0.84408292  0.85759940    -0.09500
C1282       C  0.26733891  0.86912326  0.86098154     0.29400
F1283       F  0.28147631  0.89414787  0.86108357    -0.20000
H1284       H  0.22442756  0.88828494  0.86465899     0.17800
H1285       H  0.27980691  0.79914222  0.85465541     0.17800
F1286       F  0.22271755  0.79319597  0.85901408    -0.20000
C1287       C  0.12223878  0.65437096  0.76779615    -0.21400
C1288       C  0.14993676  0.65743943  0.78174046    -0.09500
C1289       C  0.17521535  0.66205386  0.76395369     0.29400
C1290       C  0.17263904  0.66361430  0.73295774    -0.21400
C1291       C  0.14493197  0.66040653  0.71901299    -0.09500
C1292       C  0.11967937  0.65573386  0.73687167     0.29400
F1293       F  0.09230356  0.65321261  0.72464428    -0.20000
H1294       H  0.10231142  0.65125358  0.78092225     0.17800
H1295       H  0.19257495  0.66660939  0.71984080     0.17800
F1296       F  0.20261128  0.66385939  0.77626828    -0.20000
C1297       C  0.27078060  0.62790755  0.85023230    -0.21400
C1298       C  0.28634539  0.65329435  0.84910661    -0.09500
C1299       C  0.27027679  0.67847401  0.85028871     0.29400
C1300       C  0.23925169  0.67815441  0.85180596    -0.21400
C1301       C  0.22361132  0.65279277  0.85236453    -0.09500
C1302       C  0.23973187  0.62757779  0.85176994     0.29400
F1303       F  0.22555287  0.60258159  0.85129749    -0.20000
H1304       H  0.28263269  0.60825698  0.84904462     0.17800
H1305       H  0.22744638  0.69783563  0.85283515     0.17800
F1306       F  0.28451801  0.70344914  0.85075161    -0.20000
C1307       C  0.14710226  0.76215353  0.88676092    -0.21400
C1308       C  0.14613857  0.77757653  0.86030158    -0.09500
C1309       C  0.14491090  0.76338607  0.83289975     0.29400
C1310       C  0.14611372  0.73428052  0.83198578    -0.21400
C1311       C  0.14817584  0.71883373  0.85832598    -0.09500
C1312       C  0.14813642  0.73294391  0.88584626     0.29400
F1313       F  0.15061132  0.71862608  0.91169614    -0.20000
H1314       H  0.14817248  0.77276419  0.90806910     0.17800
H1315       H  0.14540596  0.72374748  0.81061017     0.17800
F1316       F  0.14220857  0.77762379  0.80700808    -0.20000
C1317       C  0.09738273  0.60358853  0.87212268    -0.21400
C1318       C  0.12090543  0.61942177  0.88415877    -0.09500
C1319       C  0.12609625  0.61734664  0.91507859     0.29400
C1320       C  0.10938056  0.59900305  0.93271682    -0.21400
C1321       C  0.08675219  0.58264252  0.92014812    -0.09500
C1322       C  0.08082826  0.58535423  0.88964267     0.29400
F1323       F  0.05921727  0.57005813  0.87631952    -0.20000
H1324       H  0.09081917  0.60513399  0.84921670     0.17800
H1325       H  0.11414035  0.59771061  0.95625861     0.17800
F1326       F  0.14745965  0.63301852  0.92830690    -0.20000
C1327       C  0.08524159  0.90180444  0.64087959    -0.21400
C1328       C  0.10989497  0.88745770  0.62879146    -0.09500
C1329       C  0.11556064  0.89029356  0.59802489     0.29400
C1330       C  0.09827139  0.90808338  0.58058480    -0.21400
C1331       C  0.07429273  0.92284612  0.59299926    -0.09500
C1332       C  0.06777552  0.91929724  0.62336658     0.29400
F1333       F  0.04493039  0.93307461  0.63660738    -0.20000
H1334       H  0.07854232  0.89932973  0.66375110     0.17800
H1335       H  0.10354267  0.91013289  0.55715966     0.17800
F1336       F  0.13784700  0.87577040  0.58466060    -0.20000
C1337       C  0.36355553  0.61388899  0.57916433    -0.21400
C1338       C  0.37509366  0.62775059  0.60430890    -0.09500
C1339       C  0.40557374  0.62414271  0.61065002     0.29400
C1340       C  0.42285447  0.60526016  0.59414551    -0.21400
C1341       C  0.41057837  0.59022179  0.57031422    -0.09500
C1342       C  0.38081757  0.59524339  0.56259334     0.29400
F1343       F  0.36767729  0.58145212  0.53976623    -0.20000
H1344       H  0.34110093  0.61721388  0.57172792     0.17800
H1345       H  0.44588650  0.60222139  0.60020907     0.17800
F1346       F  0.41856314  0.63830272  0.63336954    -0.20000
C1347       C  0.07999992  0.61942723  0.62896146    -0.21400
C1348       C  0.10573629  0.63145885  0.61658798    -0.09500
C1349       C  0.11177420  0.62609803  0.58619800     0.29400
C1350       C  0.09515225  0.60627329  0.57034647    -0.21400
C1351       C  0.07114419  0.59244666  0.58378707    -0.09500
C1352       C  0.06307814  0.60009701  0.61301507     0.29400
F1353       F  0.03949399  0.58834152  0.62694719    -0.20000
H1354       H  0.07261605  0.62474424  0.65116283     0.17800
H1355       H  0.10116923  0.60165122  0.54748753     0.17800
F1356       F  0.13401101  0.63965372  0.57181587    -0.20000
C1357       C  0.41319600  0.86895289  0.89748813    -0.21400
C1358       C  0.38717141  0.87757775  0.88267220    -0.09500
C1359       C  0.37985099  0.90630739  0.88341087     0.29400
C1360       C  0.39692405  0.92523062  0.89977426    -0.21400
C1361       C  0.42236172  0.91629589  0.91470488    -0.09500
C1362       C  0.43070420  0.88816858  0.91312855     0.29400
F1363       F  0.45554269  0.87920999  0.92717994    -0.20000
H1364       H  0.42079612  0.84761526  0.89674492     0.17800
H1365       H  0.39051393  0.94704252  0.90044049     0.17800
F1366       F  0.35610999  0.91617424  0.86817549    -0.20000
C1367       C  0.41456549  0.60575175  0.86090177    -0.21400
C1368       C  0.39090011  0.62118054  0.87346725    -0.09500
C1369       C  0.38628365  0.61915619  0.90449945     0.29400
C1370       C  0.40291415  0.60048948  0.92161342    -0.21400
C1371       C  0.42546905  0.58424485  0.90861517    -0.09500
C1372       C  0.43154948  0.58754369  0.87811654     0.29400
F1373       F  0.45327696  0.57260135  0.86441106    -0.20000
H1374       H  0.42064054  0.60766519  0.83779691     0.17800
H1375       H  0.39818176  0.59881084  0.94518464     0.17800
F1376       F  0.36531502  0.63497753  0.91833480    -0.20000
C1377       C  0.10795932  0.89985561  0.94209383    -0.21400
C1378       C  0.08165438  0.91098886  0.93045350    -0.09500
C1379       C  0.07144449  0.90104864  0.90283686     0.29400
C1380       C  0.08868845  0.88248270  0.88616326    -0.21400
C1381       C  0.11692944  0.87394012  0.89606614    -0.09500
C1382       C  0.12519366  0.88113858  0.92537767     0.29400
F1383       F  0.14974863  0.87010241  0.93812905    -0.20000
H1384       H  0.11560609  0.90597087  0.96396176     0.17800
H1385       H  0.07983434  0.87515026  0.86521055     0.17800
F1386       F  0.04507797  0.90960719  0.89149017    -0.20000
C1387       C  0.36670992  0.89360671  0.58687940    -0.21400
C1388       C  0.37895574  0.88147591  0.61257055    -0.09500
C1389       C  0.40964857  0.88527532  0.61757821     0.29400
C1390       C  0.42625093  0.90360755  0.59980871    -0.21400
C1391       C  0.41311090  0.91744011  0.57570010    -0.09500
C1392       C  0.38337361  0.91133946  0.56879515     0.29400
F1393       F  0.36973706  0.92305407  0.54510575    -0.20000
H1394       H  0.34420838  0.88934130  0.58009471     0.17800
H1395       H  0.44943541  0.90704709  0.60497167     0.17800
F1396       F  0.42361622  0.87144548  0.63979527    -0.20000
C1397       C  0.93014991  0.43878392  0.05883219     0.42400
N1398       N  0.95935866  0.47344328  0.05045355     0.01200
C1399       C  0.97004410  0.04988889  0.42023818    -0.06600
H1400       H  0.98331288  0.44301776  0.40613108     0.06700
C1401       C  0.57445024  0.44845410  0.47335575    -0.07000
Co1402     Co  0.94485957  0.50219536  0.49315135     0.74200
N1403       N  0.97225713  0.46953725  0.44365268    -0.26200
Co1404     Co  0.50548660  0.49981795  0.44618837     0.74100
C1405       C  0.56569599  0.43371524  0.44610342     0.42500
N1406       N  0.54818289  0.47364879  0.04129926     0.00900
N1407       N  0.53748593  0.46932177  0.45254725     0.01000
N1408       N  0.93041890  0.05102720  0.45131538    -0.47000
H1409       H  0.90548402  0.44612911  0.01450856     0.06700
N1410       N  0.94894501  0.47067285  0.46145928     0.01200
N1411       N  0.53855580  0.03010409  0.44944512     0.01000
C1412       C  0.56950908  0.06262605  0.43847212     0.42600
N1413       N  0.52492827  0.47454115  0.05919163    -0.25600
C1414       C  0.92165999  0.05437397  0.02671563    -0.06500
N1415       N  0.95317557  0.45358904  0.07000190    -0.46700
N1416       N  0.54560824  0.04836906  0.42862057    -0.47000
C1417       C  0.92849754  0.06872888  0.05463608     0.42400
N1418       N  0.94970418  0.03149416  0.45914625     0.01200
N1419       N  0.52459748  0.03508144  0.05628693    -0.25600
N1420       N  0.94162847  0.47278155  0.02716336    -0.26100
N1421       N  0.54796943  0.03465678  0.03847674     0.00900
H1422       H  0.51123742  0.06164774  0.09248295     0.06800
H1423       H  0.59531652  0.05613374  0.48215974     0.06800
N1424       N  0.97293276  0.03033058  0.44122271    -0.26200
N1425       N  0.55570608  0.47019100  0.47545445    -0.25800
N1426       N  0.95900870  0.03468725  0.04820584     0.01200
C1427       C  0.93977695  0.43641549  0.43216926     0.43000
C1428       C  0.52839461  0.45545819  0.08057712    -0.07000
N1429       N  0.55663655  0.03113859  0.47244167    -0.25800
H1430       H  0.59223380  0.44397165  0.48868774     0.06800
N1431       N  0.92866442  0.45162350  0.45493844    -0.47000
H1432       H  0.51304250  0.45206978  0.09872773     0.06800
C1433       C  0.55532616  0.06989741  0.06747104     0.42500
C1434       C  0.92255425  0.45155389  0.03031182    -0.06500
Co1435     Co  0.99181913  0.00444591  0.05417923     0.73800
N1436       N  0.56803069  0.45481596  0.04953123    -0.46700
C1437       C  0.94175165  0.06363803  0.42691553     0.42700
N1438       N  0.95192078  0.05528605  0.06673700    -0.46700
Co1439     Co  0.55286993  0.00247490  0.00699180     0.73900
C1440       C  0.57692706  0.05120875  0.46767075    -0.07100
C1441       C  0.96853657  0.44836380  0.42431323    -0.06600
N1442       N  0.94147152  0.03364360  0.02483032    -0.26100
N1443       N  0.54283103  0.44807827  0.43442937    -0.46900
H1444       H  0.98559503  0.05336380  0.40227371     0.06700
C1445       C  0.52713019  0.05658367  0.07523033    -0.07000
Cl1446     Cl  0.49878887  0.00226706  0.00012488    -0.50000
C1447       C  0.55711536  0.44239402  0.07418601     0.42500
H1448       H  0.90436146  0.05819259  0.01067477     0.06700
N1449       N  0.56700634  0.05504061  0.04450791    -0.46700
C1450       C  0.63975568  0.13906859  0.36494272     0.86400
C1451       C  0.67345669  0.13486070  0.36862755    -0.53900
C1452       C  0.69051710  0.15306438  0.35254485     0.09300
C1453       C  0.67216750  0.17379703  0.33404815     0.20300
C1454       C  0.63435412  0.16998460  0.37264781    -0.54600
C1455       C  0.65114961  0.18811779  0.35638935     0.09400
C1456       C  0.63521060  0.13719764  0.33084884    -0.54100
C1457       C  0.65194523  0.15546325  0.31472723     0.10000
H1458       H  0.68287755  0.11905463  0.38301344     0.14500
H1459       H  0.68571701  0.18881675  0.32110283     0.00200
H1460       H  0.61795217  0.17688947  0.38886798     0.14800
H1461       H  0.62114433  0.12227946  0.31960914     0.14600
C1462       C  0.63675320  0.35626162  0.37556591     0.86400
C1463       C  0.63212666  0.36163545  0.34209794    -0.53900
C1464       C  0.64883250  0.34508997  0.32401831     0.09300
C1465       C  0.66910140  0.32481579  0.34056844     0.20300
C1466       C  0.63138203  0.32481839  0.37953258    -0.54600
C1467       C  0.64809119  0.30839120  0.36101308     0.09400
C1468       C  0.67061957  0.36018649  0.37953183    -0.54100
C1469       C  0.68756549  0.34329518  0.36157081     0.10000
H1470       H  0.61763911  0.37758954  0.33309872     0.14500
H1471       H  0.68266646  0.31158776  0.32537784     0.00200
H1472       H  0.61530593  0.31636807  0.39514571     0.14800
H1473       H  0.68045636  0.37516188  0.39474884     0.14600
C1474       C  0.62897773  0.36773153  0.14733394     0.86400
C1475       C  0.66280887  0.37134746  0.14260892    -0.53900
C1476       C  0.68005755  0.35251277  0.15767804     0.09300
C1477       C  0.66150661  0.33232983  0.17672495     0.20300
C1478       C  0.62279897  0.33695697  0.13957746    -0.54600
C1479       C  0.63985078  0.31843669  0.15491277     0.09400
C1480       C  0.62522874  0.36963407  0.18147379    -0.54100
C1481       C  0.64227461  0.35111192  0.19660590     0.10000
H1482       H  0.67213287  0.38757768  0.12864764     0.14500
H1483       H  0.67418806  0.31674503  0.18952272     0.00200
H1484       H  0.60693077  0.33055081  0.12275038     0.14800
H1485       H  0.61184054  0.38488026  0.19328736     0.14600
C1486       C  0.62650280  0.14965214  0.13551120     0.86400
C1487       C  0.62423115  0.14533141  0.16954620    -0.53900
C1488       C  0.64268550  0.16194322  0.18595856     0.09300
C1489       C  0.66221479  0.18107411  0.16679867     0.20300
C1490       C  0.62175084  0.18118344  0.13102182    -0.54600
C1491       C  0.64052664  0.19772241  0.14730893     0.09400
C1492       C  0.65972732  0.14469627  0.12900603    -0.54100
C1493       C  0.67816755  0.16136030  0.14512928     0.10000
H1494       H  0.61092541  0.12922755  0.17989053     0.14500
H1495       H  0.67742860  0.19423627  0.18018067     0.00200
H1496       H  0.60524604  0.18956603  0.11595254     0.14800
H1497       H  0.66811105  0.12911577  0.11347968     0.14600
C1498       C  0.87077198  0.14004476  0.35470367     0.86400
C1499       C  0.87292351  0.13662633  0.32048194    -0.53900
C1500       C  0.85472152  0.15409704  0.30499242     0.09300
C1501       C  0.83583102  0.17322098  0.32499025     0.20300
C1502       C  0.87631703  0.17137319  0.36048159    -0.54600
C1503       C  0.85823215  0.18872121  0.34463702     0.09400
C1504       C  0.83742366  0.13574672  0.36113762    -0.54100
C1505       C  0.81914778  0.15342312  0.34600567     0.10000
H1506       H  0.88599332  0.12086828  0.30913871     0.14500
H1507       H  0.82096885  0.18736982  0.31249158     0.00200
H1508       H  0.89336109  0.17907658  0.37544155     0.14800
H1509       H  0.82902712  0.12026123  0.37659597     0.14600
C1510       C  0.85552567  0.14603692  0.12450447     0.86400
C1511       C  0.82155465  0.14302910  0.12054030    -0.53900
C1512       C  0.80535035  0.15962790  0.13908270     0.09300
C1513       C  0.82398867  0.17769062  0.16006031     0.20300
C1514       C  0.86165365  0.17751450  0.12107454    -0.54600
C1515       C  0.84489870  0.19417321  0.13947419     0.09400
C1516       C  0.86017410  0.14017231  0.15783478    -0.54100
C1517       C  0.84404660  0.15695950  0.17650873     0.10000
H1518       H  0.81060843  0.12843383  0.10574399     0.14500
H1519       H  0.81070683  0.19110735  0.17520723     0.00200
H1520       H  0.87743122  0.18579632  0.10506976     0.14800
H1521       H  0.87485452  0.12394865  0.16597283     0.14600
C1522       C  0.86018604  0.36339208  0.13350180     0.86400
C1523       C  0.86578137  0.36855423  0.16691666    -0.53900
C1524       C  0.84966526  0.35161140  0.18524665     0.09300
C1525       C  0.82938707  0.33106608  0.16848262     0.20300
C1526       C  0.86599005  0.33209545  0.12863321    -0.54600
C1527       C  0.84981209  0.31510979  0.14679962     0.09400
C1528       C  0.82605776  0.36677737  0.13074577    -0.54100
C1529       C  0.80968728  0.34946893  0.14858286     0.10000
H1530       H  0.88059191  0.38460479  0.17535027     0.14500
H1531       H  0.81739496  0.31680613  0.18362967     0.00200
H1532       H  0.88065753  0.32417041  0.11131769     0.14800
H1533       H  0.81572439  0.38295102  0.11769789     0.14600
C1534       C  0.86772570  0.35750067  0.36468075     0.86400
C1535       C  0.83438434  0.36027481  0.37202005    -0.53900
C1536       C  0.81627399  0.34430781  0.35453329     0.09300
C1537       C  0.83327657  0.32646973  0.33152022     0.20300
C1538       C  0.87371397  0.32580993  0.36734597    -0.54600
C1539       C  0.85567027  0.30959398  0.34999100     0.09400
C1540       C  0.87025901  0.36343364  0.33124228    -0.54100
C1541       C  0.85230154  0.34738530  0.31384745     0.10000
H1542       H  0.82591772  0.37356919  0.38976761     0.14500
H1543       H  0.81868857  0.31334261  0.31732879     0.00200
H1544       H  0.89035727  0.31652991  0.38149939     0.14800
H1545       H  0.88492718  0.37926566  0.32212462     0.14600
C1546       C  0.82429622  0.35357415  0.23478005    -0.21400
C1547       C  0.85081093  0.35301684  0.21825983    -0.09500
C1548       C  0.87797708  0.35229930  0.23351205     0.29400
C1549       C  0.87834768  0.35085283  0.26463775    -0.21400
C1550       C  0.85168555  0.34995373  0.28099406    -0.09500
C1551       C  0.82460523  0.35178607  0.26581149     0.29400
F1552       F  0.79848464  0.35252415  0.28097766    -0.20000
H1553       H  0.80326969  0.35572677  0.22369487     0.17800
H1554       H  0.89948961  0.34963636  0.27595899     0.17800
F1555       F  0.90407607  0.35184413  0.21833008    -0.20000
C1556       C  0.87363784  0.23918026  0.13662551    -0.21400
C1557       C  0.84632238  0.22524527  0.13972484    -0.09500
C1558       C  0.82040182  0.24122212  0.14410800     0.29400
C1559       C  0.82200018  0.27023261  0.14641252    -0.21400
C1560       C  0.84927445  0.28416602  0.14398327    -0.09500
C1561       C  0.87517985  0.26838497  0.13869828     0.29400
F1562       F  0.90207276  0.28100530  0.13660422    -0.20000
H1563       H  0.89394627  0.22741520  0.13339370     0.17800
H1564       H  0.80159354  0.28189060  0.14951831     0.17800
F1565       F  0.79324325  0.22902889  0.14525162    -0.20000
C1566       C  0.82448358  0.15837623  0.25886556    -0.21400
C1567       C  0.85228062  0.15401141  0.27203878    -0.09500
C1568       C  0.87731916  0.15040212  0.25356254     0.29400
C1569       C  0.87434760  0.15112793  0.22262603    -0.21400
C1570       C  0.84651956  0.15568635  0.20945197    -0.09500
C1571       C  0.82156333  0.15943937  0.22799725     0.29400
F1572       F  0.79413114  0.16357231  0.21657422    -0.20000
H1573       H  0.80474024  0.16070712  0.27248417     0.17800
H1574       H  0.89405336  0.14881409  0.20894290     0.17800
F1575       F  0.90483774  0.14723388  0.26526109    -0.20000
C1576       C  0.86127874  0.23352299  0.37354535    -0.21400
C1577       C  0.85963791  0.21967925  0.34600572    -0.09500
C1578       C  0.85761367  0.23560551  0.31984879     0.29400
C1579       C  0.85641713  0.26476135  0.32139549    -0.21400
C1580       C  0.85754904  0.27862276  0.34893230    -0.09500
C1581       C  0.86016774  0.26272904  0.37508659     0.29400
F1582       F  0.86031929  0.27531542  0.40220699    -0.20000
H1583       H  0.86244476  0.22166737  0.39397029     0.17800
H1584       H  0.85491302  0.27657515  0.30096109     0.17800
F1585       F  0.85735881  0.22303908  0.29270691    -0.20000
C1586       C  0.72674364  0.14343746  0.16228440    -0.21400
C1587       C  0.71061406  0.16004523  0.14254974    -0.09500
C1588       C  0.72556096  0.17570905  0.12086411     0.29400
C1589       C  0.75657857  0.17537324  0.11962169    -0.21400
C1590       C  0.77273900  0.15917737  0.13977892    -0.09500
C1591       C  0.75769487  0.14269615  0.16067807     0.29400
F1592       F  0.77293482  0.12566286  0.17919891    -0.20000
H1593       H  0.71530908  0.13101357  0.17883183     0.17800
H1594       H  0.76802576  0.18787376  0.10315493     0.17800
F1595       F  0.71015189  0.19150758  0.10124367    -0.20000
C1596       C  0.61320194  0.24350427  0.14506183    -0.21400
C1597       C  0.64020961  0.22879735  0.14653590    -0.09500
C1598       C  0.66685210  0.24404713  0.14856537     0.29400
C1599       C  0.66629364  0.27309299  0.15040556    -0.21400
C1600       C  0.63934199  0.28774524  0.15020431    -0.09500
C1601       C  0.61268558  0.27274401  0.14687481     0.29400
F1602       F  0.58611349  0.28611696  0.14687539    -0.20000
H1603       H  0.59235873  0.23232190  0.14362556     0.17800
H1604       H  0.68718972  0.28419327  0.15199830     0.17800
F1605       F  0.69363708  0.23109698  0.14833998    -0.20000
C1606       C  0.76176944  0.34005813  0.17561175    -0.21400
C1607       C  0.77632837  0.34948380  0.14988359    -0.09500
C1608       C  0.75855737  0.35861754  0.12596786     0.29400
C1609       C  0.72753864  0.35957239  0.12873184    -0.21400
C1610       C  0.71322887  0.35122537  0.15512535    -0.09500
C1611       C  0.73099324  0.34100423  0.17840483     0.29400
F1612       F  0.71929241  0.33237742  0.20453810    -0.20000
H1613       H  0.77384138  0.33203885  0.19428317     0.17800
H1614       H  0.71471355  0.36635078  0.10978452     0.17800
F1615       F  0.77071652  0.36560575  0.09938182    -0.20000
C1616       C  0.66995649  0.35704869  0.24391279    -0.21400
C1617       C  0.64345475  0.35029471  0.22931560    -0.09500
C1618       C  0.61844841  0.34250055  0.24601722     0.29400
C1619       C  0.62030177  0.34087874  0.27698632    -0.21400
C1620       C  0.64716693  0.34671206  0.29143603    -0.09500
C1621       C  0.67201916  0.35486690  0.27478583     0.29400
F1622       F  0.69789363  0.36155170  0.28847490    -0.20000
H1623       H  0.68884931  0.36459860  0.23144391     0.17800
H1624       H  0.60092839  0.33472116  0.28972236     0.17800
F1625       F  0.59250491  0.33607735  0.23233378    -0.20000
C1626       C  0.73624409  0.36875936  0.36280321    -0.21400
C1627       C  0.72062663  0.34340138  0.36141763    -0.09500
C1628       C  0.73677781  0.31830931  0.35880989     0.29400
C1629       C  0.76781851  0.31876616  0.35669772    -0.21400
C1630       C  0.78337286  0.34415254  0.35757418    -0.09500
C1631       C  0.76728176  0.36919701  0.36089488     0.29400
F1632       F  0.78142277  0.39422003  0.36098470    -0.20000
H1633       H  0.72435995  0.38836161  0.36446996     0.17800
H1634       H  0.77976001  0.29920892  0.35470411     0.17800
F1635       F  0.72266925  0.29326412  0.35899725    -0.20000
C1636       C  0.62221797  0.15438219  0.26777825    -0.21400
C1637       C  0.64991316  0.15742088  0.28173340    -0.09500
C1638       C  0.67520293  0.16202059  0.26395688     0.29400
C1639       C  0.67263934  0.16360098  0.23295969    -0.21400
C1640       C  0.64493357  0.16042603  0.21900434    -0.09500
C1641       C  0.61967056  0.15576672  0.23685362     0.29400
F1642       F  0.59229558  0.15328089  0.22461637    -0.20000
H1643       H  0.60228342  0.15127616  0.28089653     0.17800
H1644       H  0.69258175  0.16658553  0.21984972     0.17800
F1645       F  0.70259569  0.16379463  0.27628382    -0.20000
C1646       C  0.77072764  0.12790907  0.35029442    -0.21400
C1647       C  0.78629047  0.15329628  0.34914360    -0.09500
C1648       C  0.77021837  0.17847491  0.35030296     0.29400
C1649       C  0.73919336  0.17815393  0.35181692    -0.21400
C1650       C  0.72355429  0.15279232  0.35239372    -0.09500
C1651       C  0.73967772  0.12757788  0.35182757     0.29400
F1652       F  0.72550122  0.10258003  0.35137589    -0.20000
H1653       H  0.78258200  0.10825880  0.34912649     0.17800
H1654       H  0.72738686  0.19783526  0.35282669     0.17800
F1655       F  0.78445591  0.20345201  0.35074372    -0.20000
C1656       C  0.64702947  0.26218420  0.38667465    -0.21400
C1657       C  0.64609978  0.27758759  0.36020077    -0.09500
C1658       C  0.64487782  0.26337462  0.33281118     0.29400
C1659       C  0.64606825  0.23426811  0.33192344    -0.21400
C1660       C  0.64810842  0.21884034  0.35827782    -0.09500
C1661       C  0.64804714  0.23297221  0.38578626     0.29400
F1662       F  0.65048478  0.21867274  0.41165127    -0.20000
H1663       H  0.64808458  0.27281121  0.40797444     0.17800
H1664       H  0.64537004  0.22371940  0.31055615     0.17800
F1665       F  0.64219177  0.27759075  0.30690478    -0.20000
C1666       C  0.59735113  0.10356344  0.37213282    -0.21400
C1667       C  0.62084248  0.11943666  0.38416862    -0.09500
C1668       C  0.62601408  0.11739739  0.41509578     0.29400
C1669       C  0.60931072  0.09905066  0.43274321    -0.21400
C1670       C  0.58671307  0.08265326  0.42017534    -0.09500
C1671       C  0.58080626  0.08533017  0.38966232     0.29400
F1672       F  0.55922766  0.06999344  0.37633895    -0.20000
H1673       H  0.59080920  0.10507029  0.34921773     0.17800
H1674       H  0.61405492  0.09778344  0.45629019     0.17800
F1675       F  0.64735033  0.13310450  0.42832093    -0.20000
C1676       C  0.58534246  0.40187527  0.14080510    -0.21400
C1677       C  0.60995931  0.38750133  0.12867561    -0.09500
C1678       C  0.61559360  0.39034438  0.09790539     0.29400
C1679       C  0.59828967  0.40814120  0.08049219    -0.21400
C1680       C  0.57433956  0.42291549  0.09294500    -0.09500
C1681       C  0.56787002  0.41938415  0.12332143     0.29400
F1682       F  0.54507242  0.43320194  0.13659843    -0.20000
H1683       H  0.57867509  0.39941869  0.16368652     0.17800
H1684       H  0.60352934  0.41019087  0.05705989     0.17800
F1685       F  0.63786803  0.37582592  0.08451476    -0.20000
C1686       C  0.86355499  0.11394651  0.07914567    -0.21400
C1687       C  0.87509716  0.12779357  0.10429984    -0.09500
C1688       C  0.90556855  0.12414773  0.11065528     0.29400
C1689       C  0.92283184  0.10524619  0.09415563    -0.21400
C1690       C  0.91054735  0.09021994  0.07031855    -0.09500
C1691       C  0.88079679  0.09527385  0.06258681     0.29400
F1692       F  0.86764679  0.08148856  0.03976110    -0.20000
H1693       H  0.84111049  0.11730059  0.07169315     0.17800
H1694       H  0.94585716  0.10218159  0.10022974     0.17800
F1695       F  0.91856473  0.13828596  0.13338600    -0.20000
C1696       C  0.57999379  0.11945665  0.12896755    -0.21400
C1697       C  0.60573010  0.13148455  0.11658849    -0.09500
C1698       C  0.61175679  0.12613214  0.08619560     0.29400
C1699       C  0.59512204  0.10632010  0.07034278    -0.21400
C1700       C  0.57111282  0.09249807  0.08378590    -0.09500
C1701       C  0.56305907  0.10013831  0.11301953     0.29400
F1702       F  0.53947409  0.08838576  0.12695341    -0.20000
H1703       H  0.57261730  0.12476900  0.15117233     0.17800
H1704       H  0.60113085  0.10170345  0.04748049     0.17800
F1705       F  0.63399686  0.13968224  0.07181246    -0.20000
C1706       C  0.91312246  0.36893163  0.39759669    -0.21400
C1707       C  0.88713383  0.37757595  0.38272967    -0.09500
C1708       C  0.87985609  0.40631554  0.38342249     0.29400
C1709       C  0.89693869  0.42523550  0.39977772    -0.21400
C1710       C  0.92234205  0.41628532  0.41475361    -0.09500
C1711       C  0.93064089  0.38814351  0.41323328     0.29400
F1712       F  0.95544662  0.37916929  0.42733148    -0.20000
H1713       H  0.92068544  0.34758131  0.39689883     0.17800
H1714       H  0.89056185  0.44705684  0.40040414     0.17800
F1715       F  0.85614853  0.41619613  0.36814579    -0.20000
C1716       C  0.91454180  0.10579952  0.36094186    -0.21400
C1717       C  0.89087152  0.12122439  0.37350412    -0.09500
C1718       C  0.88626902  0.11921303  0.40454016     0.29400
C1719       C  0.90290923  0.10055308  0.42165825    -0.21400
C1720       C  0.92546260  0.08430381  0.40866052    -0.09500
C1721       C  0.93153593  0.08760042  0.37815968     0.29400
F1722       F  0.95326516  0.07266130  0.36445347    -0.20000
H1723       H  0.92061164  0.10770798  0.33783507     0.17800
H1724       H  0.89818365  0.09888106  0.44523137     0.17800
F1725       F  0.86530401  0.13503917  0.41837491    -0.20000
C1726       C  0.60780251  0.39974370  0.44190972    -0.21400
C1727       C  0.58157838  0.41101817  0.43024239    -0.09500
C1728       C  0.57142869  0.40124250  0.40253530     0.29400
C1729       C  0.58866277  0.38270353  0.38581597    -0.21400
C1730       C  0.61682686  0.37399980  0.39577918    -0.09500
C1731       C  0.62501455  0.38103533  0.42515601     0.29400
F1732       F  0.64949823  0.36986707  0.43791586    -0.20000
H1733       H  0.61539759  0.40573422  0.46383478     0.17800
H1734       H  0.57983434  0.37549195  0.36480794     0.17800
F1735       F  0.54512667  0.40992917  0.39114897    -0.20000
C1736       C  0.86682054  0.39353047  0.08687710    -0.21400
C1737       C  0.87904455  0.38147935  0.11262100    -0.09500
C1738       C  0.90972389  0.38532907  0.11766454     0.29400
C1739       C  0.92632201  0.40364916  0.09987700    -0.21400
C1740       C  0.91319315  0.41741713  0.07571938    -0.09500
C1741       C  0.88347905  0.41125342  0.06877937     0.29400
F1742       F  0.86985717  0.42289612  0.04504153    -0.20000
H1743       H  0.84433750  0.38921112  0.08006698     0.17800
H1744       H  0.94949267  0.40713370  0.10506758     0.17800
F1745       F  0.92368275  0.37156172  0.13993100    -0.20000
C1746       C  0.93008486  0.43880301  0.55883425     0.42400
N1747       N  0.95933305  0.47343362  0.55045310     0.01200
C1748       C  0.97004547  0.04984109  0.92021080    -0.06600
H1749       H  0.98335132  0.44301767  0.90611902     0.06700
C1750       C  0.57450021  0.44851195  0.97345609    -0.07000
Co1751     Co  0.94487504  0.50217979  0.99314286     0.74200
N1752       N  0.97229997  0.46951567  0.94365871    -0.26200
Co1753     Co  0.50552201  0.49980658  0.94618663     0.74100
C1754       C  0.56576553  0.43372286  0.94623302     0.42500
N1755       N  0.54816321  0.47356358  0.54129091     0.00900
N1756       N  0.53753769  0.46932913  0.95258518     0.01000
N1757       N  0.93041695  0.05098437  0.95128683    -0.47000
H1758       H  0.90541427  0.44617942  0.51452101     0.06700
N1759       N  0.94898062  0.47065357  0.96145640     0.01200
N1760       N  0.53856511  0.03011283  0.94942384     0.01000
C1761       C  0.56952825  0.06262396  0.93843453     0.42600
N1762       N  0.52490872  0.47447525  0.55918397    -0.25600
C1763       C  0.92170909  0.05440251  0.52671006    -0.06500
N1764       N  0.95313092  0.45358304  0.57000054    -0.46700
N1765       N  0.54563592  0.04835336  0.92857899    -0.47000
C1766       C  0.92855095  0.06875286  0.55462904     0.42400
N1767       N  0.94970957  0.03146495  0.95913240     0.01200
N1768       N  0.52463097  0.03501933  0.55629276    -0.25600
N1769       N  0.94159722  0.47279180  0.52716639    -0.26100
N1770       N  0.54800780  0.03457940  0.53848920     0.00900
H1771       H  0.51126760  0.06160552  0.59246987     0.06800
H1772       H  0.59530037  0.05617817  0.98215025     0.06800
N1773       N  0.97293971  0.03029886  0.94120915    -0.26200
N1774       N  0.55574635  0.47024164  0.97549905    -0.25800
N1775       N  0.95903551  0.03468686  0.54821092     0.01200
C1776       C  0.93980349  0.43642017  0.93213806     0.43000
C1777       C  0.52836267  0.45539926  0.58057898    -0.07000
N1778       N  0.55662632  0.03117909  0.97243348    -0.25800
H1779       H  0.59226778  0.44405815  0.98881592     0.06800
N1780       N  0.92869084  0.45161953  0.95491325    -0.47000
H1781       H  0.51300745  0.45203467  0.59873148     0.06800
C1782       C  0.55537105  0.06982738  0.56747510     0.42500
C1783       C  0.92249778  0.45158409  0.53031789    -0.06500
Co1784     Co  0.99182612  0.00441694  0.55417837     0.73800
N1785       N  0.56800155  0.45472460  0.54953925    -0.46700
C1786       C  0.94174811  0.06358055  0.92687865     0.42700
N1787       N  0.95196049  0.05529325  0.56673884    -0.46700
Co1788     Co  0.55287637  0.00240547  0.50698290     0.73900
C1789       C  0.57691982  0.05124246  0.96765413    -0.07100
C1790       C  0.96857623  0.44835385  0.92430547    -0.06600
N1791       N  0.94149901  0.03365569  0.52483439    -0.26100
N1792       N  0.54290007  0.44805468  0.93451217    -0.46900
H1793       H  0.98559577  0.05331001  0.90224441     0.06700
C1794       C  0.52716772  0.05652588  0.57522929    -0.07000
Cl1795     Cl  0.49878737  0.00224539  0.50012507    -0.50000
C1796       C  0.55707804  0.44231614  0.57420289     0.42500
H1797       H  0.90442020  0.05823462  0.51066260     0.06700
N1798       N  0.56705139  0.05495999  0.54451834    -0.46700
C1799       C  0.63981978  0.13906187  0.86493958     0.86400
C1800       C  0.67352268  0.13485113  0.86860750    -0.53900
C1801       C  0.69057609  0.15306441  0.85252827     0.09300
C1802       C  0.67221888  0.17380607  0.83405095     0.20300
C1803       C  0.63442387  0.16997379  0.87266590    -0.54600
C1804       C  0.65121363  0.18811446  0.85641126     0.09400
C1805       C  0.63526276  0.13720633  0.83084892    -0.54100
C1806       C  0.65198604  0.15548163  0.81472977     0.10000
H1807       H  0.68295026  0.11903692  0.88297877     0.14500
H1808       H  0.68576300  0.18883306  0.82110972     0.00200
H1809       H  0.61803135  0.17687116  0.88889931     0.14800
H1810       H  0.62120279  0.12228285  0.81960893     0.14600
C1811       C  0.63685815  0.35622771  0.87582314     0.86400
C1812       C  0.63220840  0.36168360  0.84237556    -0.53900
C1813       C  0.64887146  0.34516019  0.82423042     0.09300
C1814       C  0.66913401  0.32482616  0.84071526     0.20300
C1815       C  0.63145054  0.32478320  0.87971411    -0.54600
C1816       C  0.64812890  0.30837960  0.86114402     0.09400
C1817       C  0.67073286  0.36010677  0.87976648    -0.54100
C1818       C  0.68763853  0.34323842  0.86174427     0.10000
H1819       H  0.61771286  0.37766865  0.83344689     0.14500
H1820       H  0.68267105  0.31161256  0.82548561     0.00200
H1821       H  0.61538703  0.31631494  0.89532918     0.14800
H1822       H  0.68061315  0.37505268  0.89498509     0.14600
C1823       C  0.62889727  0.36769736  0.64748133     0.86400
C1824       C  0.66273586  0.37125736  0.64274869    -0.53900
C1825       C  0.67996943  0.35241425  0.65783362     0.09300
C1826       C  0.66137616  0.33230139  0.67693341     0.20300
C1827       C  0.62266741  0.33692130  0.63978693    -0.54600
C1828       C  0.63969380  0.31840578  0.65515110     0.09400
C1829       C  0.62516028  0.36966991  0.68161694    -0.54100
C1830       C  0.64218293  0.35115353  0.69679022     0.10000
H1831       H  0.67206958  0.38746497  0.62876662     0.14500
H1832       H  0.67399828  0.31670054  0.68975723     0.00200
H1833       H  0.60679891  0.33050740  0.62296301     0.14800
H1834       H  0.61180410  0.38497136  0.69338823     0.14600
C1835       C  0.62649560  0.14963427  0.63551586     0.86400
C1836       C  0.62422893  0.14530247  0.66955165    -0.53900
C1837       C  0.64267407  0.16192236  0.68596682     0.09300
C1838       C  0.66218624  0.18107000  0.66681254     0.20300
C1839       C  0.62171735  0.18116505  0.63104089    -0.54600
C1840       C  0.64048078  0.19770857  0.64733661     0.09400
C1841       C  0.65972520  0.14470278  0.62900928    -0.54100
C1842       C  0.67815426  0.16137326  0.64513903     0.10000
H1843       H  0.61093156  0.12919078  0.67989311     0.14500
H1844       H  0.67739037  0.19424150  0.68019548     0.00200
H1845       H  0.60519711  0.18954513  0.61598684     0.14800
H1846       H  0.66812060  0.12912769  0.61348318     0.14600
C1847       C  0.87081801  0.14001581  0.85467956     0.86400
C1848       C  0.87297907  0.13662645  0.82045622    -0.53900
C1849       C  0.85478769  0.15411726  0.80498108     0.09300
C1850       C  0.83590012  0.17323029  0.82499263     0.20300
C1851       C  0.87637719  0.17133671  0.86049102    -0.54600
C1852       C  0.85830520  0.18870422  0.84465753     0.09400
C1853       C  0.83746754  0.13572364  0.86110003    -0.54100
C1854       C  0.81920379  0.15342043  0.84598300     0.10000
H1855       H  0.88604312  0.12087244  0.80910006     0.14500
H1856       H  0.82104593  0.18739527  0.81250518     0.00200
H1857       H  0.89342590  0.17902056  0.87545697     0.14800
H1858       H  0.82906058  0.12022555  0.87653852     0.14600
C1859       C  0.85551772  0.14599316  0.62450871     0.86400
C1860       C  0.82154273  0.14297950  0.62056450    -0.53900
C1861       C  0.80534741  0.15959205  0.63910512     0.09300
C1862       C  0.82399969  0.17767053  0.66005417     0.20300
C1863       C  0.86164048  0.17746606  0.62104685    -0.54600
C1864       C  0.84489670  0.19413631  0.63944047     0.09400
C1865       C  0.86018535  0.14015237  0.65783973    -0.54100
C1866       C  0.84406787  0.15695291  0.67650759     0.10000
H1867       H  0.81059114  0.12838019  0.60577694     0.14500
H1868       H  0.81072859  0.19109988  0.67519744     0.00200
H1869       H  0.87740699  0.18573654  0.60502427     0.14800
H1870       H  0.87487258  0.12393603  0.66598214     0.14600
C1871       C  0.86011703  0.36336165  0.63345751     0.86400
C1872       C  0.86572513  0.36850947  0.66687200    -0.53900
C1873       C  0.84963794  0.35154125  0.68520199     0.09300
C1874       C  0.82937462  0.33098716  0.66843213     0.20300
C1875       C  0.86594907  0.33207300  0.62856185    -0.54600
C1876       C  0.84979884  0.31506405  0.64672462     0.09400
C1877       C  0.82598133  0.36671864  0.63072562    -0.54100
C1878       C  0.80963338  0.34938185  0.64855943     0.10000
H1879       H  0.88051840  0.38457558  0.67530172     0.14500
H1880       H  0.81743231  0.31669660  0.68357899     0.00200
H1881       H  0.88061065  0.32417040  0.61122969     0.14800
H1882       H  0.81563522  0.38290079  0.61770505     0.14600
C1883       C  0.86777795  0.35748534  0.86464898     0.86400
C1884       C  0.83444273  0.36022846  0.87201872    -0.53900
C1885       C  0.81633205  0.34424633  0.85454819     0.09300
C1886       C  0.83333211  0.32641833  0.83152423     0.20300
C1887       C  0.87380011  0.32580144  0.86731566    -0.54600
C1888       C  0.85575815  0.30956787  0.84998127     0.09400
C1889       C  0.87027227  0.36341871  0.83120722    -0.54100
C1890       C  0.85231861  0.34734924  0.81382615     0.10000
H1891       H  0.82598057  0.37351459  0.88977526     0.14500
H1892       H  0.81874711  0.31326860  0.81735440     0.00200
H1893       H  0.89045778  0.31653649  0.88146345     0.14800
H1894       H  0.88491307  0.37926772  0.82207960     0.14600
C1895       C  0.82425789  0.35329341  0.73474150    -0.21400
C1896       C  0.85078047  0.35294082  0.71822168    -0.09500
C1897       C  0.87794885  0.35243407  0.73347823     0.29400
C1898       C  0.87833102  0.35099719  0.76460562    -0.21400
C1899       C  0.85167699  0.34990598  0.78096542    -0.09500
C1900       C  0.82458485  0.35152540  0.76577696     0.29400
F1901       F  0.79845319  0.35207952  0.78093301    -0.20000
H1902       H  0.80322114  0.35527070  0.72366174     0.17800
H1903       H  0.89948313  0.34993836  0.77592293     0.17800
F1904       F  0.90405488  0.35217087  0.71830431    -0.20000
C1905       C  0.87362941  0.23914114  0.63651590    -0.21400
C1906       C  0.84631866  0.22520544  0.63965778    -0.09500
C1907       C  0.82039968  0.24117975  0.64404954     0.29400
C1908       C  0.82199650  0.27018862  0.64633744    -0.21400
C1909       C  0.84926722  0.28412386  0.64388282    -0.09500
C1910       C  0.87516934  0.26834684  0.63856897     0.29400
F1911       F  0.90205679  0.28097086  0.63643051    -0.20000
H1912       H  0.89393609  0.22737689  0.63326893     0.17800
H1913       H  0.80158988  0.28184346  0.64945703     0.17800
F1914       F  0.79324320  0.22898531  0.64522247    -0.20000
C1915       C  0.82454258  0.15842396  0.75886703    -0.21400
C1916       C  0.85234220  0.15404957  0.77203015    -0.09500
C1917       C  0.87737418  0.15043119  0.75354732     0.29400
C1918       C  0.87439106  0.15114700  0.72261233    -0.21400
C1919       C  0.84655796  0.15570435  0.70944850    -0.09500
C1920       C  0.82161057  0.15947542  0.72800075     0.29400
F1921       F  0.79417388  0.16360532  0.71658651    -0.20000
H1922       H  0.80480433  0.16076241  0.77249152     0.17800
H1923       H  0.89409048  0.14882155  0.70892218     0.17800
F1924       F  0.90489579  0.14725750  0.76523755    -0.20000
C1925       C  0.86139427  0.23350707  0.87356313    -0.21400
C1926       C  0.85974254  0.21965911  0.84602641    -0.09500
C1927       C  0.85772793  0.23557967  0.81986552     0.29400
C1928       C  0.85652983  0.26473353  0.82140438    -0.21400
C1929       C  0.85765888  0.27859978  0.84893668    -0.09500
C1930       C  0.86028828  0.26271413  0.87509614     0.29400
F1931       F  0.86045052  0.27530874  0.90221237    -0.20000
H1932       H  0.86256021  0.22165513  0.89399051     0.17800
H1933       H  0.85502271  0.27654250  0.80096697     0.17800
F1934       F  0.85747792  0.22300867  0.79272619    -0.20000
C1935       C  0.72672528  0.14343815  0.66230700    -0.21400
C1936       C  0.71060470  0.16006346  0.64258018    -0.09500
C1937       C  0.72556407  0.17574789  0.62092072     0.29400
C1938       C  0.75658176  0.17539158  0.61967536    -0.21400
C1939       C  0.77273342  0.15916392  0.63981098    -0.09500
C1940       C  0.75767806  0.14268750  0.66070752     0.29400
F1941       F  0.77290838  0.12565470  0.67923710    -0.20000
H1942       H  0.71528254  0.13100865  0.67884400     0.17800
H1943       H  0.76803644  0.18790071  0.60322132     0.17800
F1944       F  0.71016672  0.19158370  0.60132541    -0.20000
C1945       C  0.61309475  0.24346442  0.64523469    -0.21400
C1946       C  0.64012292  0.22878202  0.64661609    -0.09500
C1947       C  0.66675245  0.24405141  0.64863504     0.29400
C1948       C  0.66616669  0.27309163  0.65054752    -0.21400
C1949       C  0.63919919  0.28771836  0.65042639    -0.09500
C1950       C  0.61255102  0.27270082  0.64711931     0.29400
F1951       F  0.58596694  0.28605376  0.64720518    -0.20000
H1952       H  0.59226191  0.23226280  0.64381509     0.17800
H1953       H  0.68705390  0.28420864  0.65212663     0.17800
F1954       F  0.69355006  0.23112475  0.64833178    -0.20000
C1955       C  0.76173021  0.33973478  0.67554577    -0.21400
C1956       C  0.77626413  0.34935794  0.64988288    -0.09500
C1957       C  0.75845621  0.35863327  0.62605884     0.29400
C1958       C  0.72743944  0.35957048  0.62886992    -0.21400
C1959       C  0.71315033  0.35105974  0.65521969    -0.09500
C1960       C  0.73095259  0.34064189  0.67837513     0.29400
F1961       F  0.71931379  0.33175840  0.70443415    -0.20000
H1962       H  0.77380527  0.33158509  0.69413558     0.17800
H1963       H  0.71460607  0.36647187  0.60998288     0.17800
F1964       F  0.77056664  0.36579012  0.59950344    -0.20000
C1965       C  0.67006078  0.35665274  0.74404926    -0.21400
C1966       C  0.64338788  0.35040094  0.72951272    -0.09500
C1967       C  0.61824136  0.34315252  0.74629156     0.29400
C1968       C  0.62012582  0.34153980  0.77726083    -0.21400
C1969       C  0.64715264  0.34683757  0.79164566    -0.09500
C1970       C  0.67214477  0.35447173  0.77492028     0.29400
F1971       F  0.69819670  0.36066459  0.78853142    -0.20000
H1972       H  0.68908387  0.36383118  0.73153545     0.17800
H1973       H  0.60064415  0.33578102  0.79004609     0.17800
F1974       F  0.59212800  0.33721893  0.73268501    -0.20000
C1975       C  0.73631677  0.36868502  0.86294315    -0.21400
C1976       C  0.72069626  0.34333163  0.86153835    -0.09500
C1977       C  0.73683799  0.31824055  0.85885695     0.29400
C1978       C  0.76787670  0.31869691  0.85670650    -0.21400
C1979       C  0.78343396  0.34408180  0.85761101    -0.09500
C1980       C  0.76734861  0.36912286  0.86099035     0.29400
F1981       F  0.78148731  0.39414680  0.86109622    -0.20000
H1982       H  0.72443767  0.38828659  0.86465903     0.17800
H1983       H  0.77981357  0.29914137  0.85466427     0.17800
F1984       F  0.72272345  0.29319774  0.85901015    -0.20000
C1985       C  0.62223904  0.15437646  0.76779441    -0.21400
C1986       C  0.64993744  0.15744418  0.78173817    -0.09500
C1987       C  0.67521562  0.16205886  0.76395087     0.29400
C1988       C  0.67263877  0.16361858  0.73295494    -0.21400
C1989       C  0.64493152  0.16041027  0.71901075    -0.09500
C1990       C  0.61967907  0.15573891  0.73686997     0.29400
F1991       F  0.59230303  0.15321794  0.72464301    -0.20000
H1992       H  0.60231186  0.15125948  0.78092092     0.17800
H1993       H  0.69257448  0.16661316  0.71983758     0.17800
F1994       F  0.70261176  0.16386489  0.77626484    -0.20000
C1995       C  0.77078207  0.12790973  0.85023251    -0.21400
C1996       C  0.78634683  0.15329671  0.84911031    -0.09500
C1997       C  0.77027805  0.17847621  0.85029527     0.29400
C1998       C  0.73925270  0.17815611  0.85181069    -0.21400
C1999       C  0.72361251  0.15279414  0.85236522    -0.09500
C2000       C  0.73973339  0.12757949  0.85176904     0.29400
F2001       F  0.72555476  0.10258317  0.85129407    -0.20000
H2002       H  0.78263423  0.10825929  0.84904301     0.17800
H2003       H  0.72744699  0.19783709  0.85284155     0.17800
F2004       F  0.78451925  0.20345131  0.85076258    -0.20000
C2005       C  0.64710952  0.26215450  0.88676153    -0.21400
C2006       C  0.64614740  0.27757779  0.86030219    -0.09500
C2007       C  0.64491917  0.26338748  0.83290033     0.29400
C2008       C  0.64611957  0.23428198  0.83198616    -0.21400
C2009       C  0.64817994  0.21883482  0.85832615    -0.09500
C2010       C  0.64814142  0.23294469  0.88584664     0.29400
F2011       F  0.65061500  0.21862629  0.91169632    -0.20000
H2012       H  0.64818006  0.27276499  0.90806981     0.17800
H2013       H  0.64541133  0.22374924  0.81061041     0.17800
F2014       F  0.64221837  0.27762534  0.80700862    -0.20000
C2015       C  0.59737890  0.10359276  0.87211711    -0.21400
C2016       C  0.62090399  0.11942268  0.88415385    -0.09500
C2017       C  0.62609484  0.11734509  0.91507336     0.29400
C2018       C  0.60937731  0.09900217  0.93271054    -0.21400
C2019       C  0.58674665  0.08264466  0.92014138    -0.09500
C2020       C  0.58082223  0.08535916  0.88963629     0.29400
F2021       F  0.55920842  0.07006679  0.87631291    -0.20000
H2022       H  0.59081500  0.10514082  0.84921140     0.17800
H2023       H  0.61413759  0.09770794  0.95625209     0.17800
F2024       F  0.64745991  0.13301428  0.92830253    -0.20000
C2025       C  0.58522955  0.40178328  0.64086613    -0.21400
C2026       C  0.60989819  0.38745607  0.62878363    -0.09500
C2027       C  0.61557489  0.39030562  0.59802047     0.29400
C2028       C  0.59828382  0.40809459  0.58058078    -0.21400
C2029       C  0.57429146  0.42284116  0.59299098    -0.09500
C2030       C  0.56776141  0.41927458  0.62335336     0.29400
F2031       F  0.54489988  0.43303111  0.63658987    -0.20000
H2032       H  0.57851997  0.39929221  0.66373282     0.17800
H2033       H  0.60356453  0.41015578  0.55715897     0.17800
F2034       F  0.63787262  0.37579618  0.58465842    -0.20000
C2035       C  0.86355632  0.11388571  0.57917027    -0.21400
C2036       C  0.87509443  0.12775149  0.60431237    -0.09500
C2037       C  0.90557586  0.12414882  0.61065066     0.29400
C2038       C  0.92285886  0.10526870  0.59414494    -0.21400
C2039       C  0.91058338  0.09022697  0.57031558    -0.09500
C2040       C  0.88082048  0.09524242  0.56259833     0.29400
F2041       F  0.86768041  0.08144702  0.53977392    -0.20000
H2042       H  0.84110016  0.11720545  0.57173613     0.17800
H2043       H  0.94589217  0.10223432  0.60020610     0.17800
F2044       F  0.91856451  0.13831175  0.63336860    -0.20000
C2045       C  0.58000651  0.11941291  0.62896381    -0.21400
C2046       C  0.60573585  0.13145522  0.61658738    -0.09500
C2047       C  0.61176998  0.12610072  0.58619538     0.29400
C2048       C  0.59515095  0.10627408  0.57034299    -0.21400
C2049       C  0.57114986  0.09243851  0.58378565    -0.09500
C2050       C  0.56308849  0.10008004  0.61301735     0.29400
F2051       F  0.53951343  0.08831237  0.62695329    -0.20000
H2052       H  0.57262445  0.12472335  0.65116733     0.17800
H2053       H  0.60116449  0.10165768  0.54748189     0.17800
F2054       F  0.63400143  0.13966364  0.57181265    -0.20000
C2055       C  0.91320311  0.36894833  0.89750572    -0.21400
C2056       C  0.88718223  0.37757425  0.88268392    -0.09500
C2057       C  0.87986625  0.40630490  0.88341509     0.29400
C2058       C  0.89693976  0.42522859  0.89977695    -0.21400
C2059       C  0.92237297  0.41629263  0.91471408    -0.09500
C2060       C  0.93071159  0.38816413  0.91314506     0.29400
F2061       F  0.95554638  0.37920469  0.92720242    -0.20000
H2062       H  0.92080019  0.34760961  0.89676883     0.17800
H2063       H  0.89053319  0.44704155  0.90043756     0.17800
F2064       F  0.85612929  0.41617204  0.86817364    -0.20000
C2065       C  0.91455471  0.10573501  0.86090217    -0.21400
C2066       C  0.89089679  0.12117309  0.87346872    -0.09500
C2067       C  0.88628329  0.11915425  0.90450179     0.29400
C2068       C  0.90291184  0.10048743  0.92161716    -0.21400
C2069       C  0.92546136  0.08423648  0.90861894    -0.09500
C2070       C  0.93153649  0.08752636  0.87811816     0.29400
F2071       F  0.95325644  0.07257464  0.86441213    -0.20000
H2072       H  0.92062590  0.10764119  0.83779570     0.17800
H2073       H  0.89818282  0.09881425  0.94518954     0.17800
F2074       F  0.86531956  0.13498171  0.91833667    -0.20000
C2075       C  0.60797062  0.39986361  0.94208644    -0.21400
C2076       C  0.58166560  0.41099620  0.93044582    -0.09500
C2077       C  0.57145526  0.40105497  0.90282977     0.29400
C2078       C  0.58869758  0.38248641  0.88615816    -0.21400
C2079       C  0.61693832  0.37394354  0.89606142    -0.09500
C2080       C  0.62520404  0.38114494  0.92537167     0.29400
F2081       F  0.64975973  0.37011027  0.93812310    -0.20000
H2082       H  0.61561814  0.40598057  0.96395361     0.17800
H2083       H  0.57984232  0.37515230  0.86520663     0.17800
F2084       F  0.54508985  0.40961487  0.89148163    -0.20000
C2085       C  0.86671766  0.39359581  0.58688966    -0.21400
C2086       C  0.87896103  0.38147574  0.61258761    -0.09500
C2087       C  0.90965173  0.38528439  0.61760082     0.29400
C2088       C  0.92625231  0.40361702  0.59982995    -0.21400
C2089       C  0.91311346  0.41744022  0.57571439    -0.09500
C2090       C  0.88337984  0.41132867  0.56880403     0.29400
F2091       F  0.86974521  0.42303192  0.54510722    -0.20000
H2092       H  0.84421891  0.38932156  0.58010139     0.17800
H2093       H  0.94943455  0.40706409  0.60499727     0.17800
F2094       F  0.92361927  0.37146288  0.63982386    -0.20000
C2095       C  0.93014854  0.93878127  0.05883383     0.42400
N2096       N  0.95935706  0.97344100  0.05045492     0.01200
C2097       C  0.97003477  0.54988830  0.42023829    -0.06600
H2098       H  0.98333023  0.94300752  0.40614201     0.06700
C2099       C  0.57446188  0.94845555  0.47334865    -0.07000
Co2100     Co  0.94486632  0.00219626  0.49315004     0.74200
N2101       N  0.97226705  0.96953556  0.44365450    -0.26200
Co2102     Co  0.50549503  0.99981785  0.44618748     0.74100
C2103       C  0.56571029  0.93372061  0.44609276     0.42500
N2104       N  0.54818029  0.97364872  0.04129971     0.00900
N2105       N  0.53749442  0.96932182  0.45254450     0.01000
N2106       N  0.93040947  0.55102648  0.45131561    -0.47000
H2107       H  0.90548174  0.94612723  0.01451073     0.06700
N2108       N  0.94895441  0.97067153  0.46146031     0.01200
N2109       N  0.53854673  0.53010556  0.44944586     0.01000
C2110       C  0.56949517  0.56263273  0.43847487     0.42600
N2111       N  0.52492620  0.97454013  0.05919276    -0.25600
C2112       C  0.92165950  0.55437492  0.02671344    -0.06500
N2113       N  0.95317438  0.95358648  0.07000312    -0.46700
N2114       N  0.54559649  0.54837282  0.42862251    -0.47000
C2115       C  0.92849546  0.56873029  0.05463434     0.42400
N2116       N  0.94969589  0.53149460  0.45914764     0.01200
N2117       N  0.52459967  0.53508202  0.05628363    -0.25600
N2118       N  0.94162622  0.97277967  0.02716511    -0.26100
N2119       N  0.54797272  0.53465669  0.03847485     0.00900
H2120       H  0.51123689  0.56164978  0.09247726     0.06800
H2121       H  0.59530280  0.55614188  0.48216261     0.06800
N2122       N  0.97292432  0.53033120  0.44122385    -0.26200
N2123       N  0.55571421  0.97018952  0.47545200    -0.25800
N2124       N  0.95900939  0.53469009  0.04820372     0.01200
C2125       C  0.93979484  0.93640425  0.43218052     0.43000
C2126       C  0.52839335  0.95545651  0.08057727    -0.07000
N2127       N  0.55662722  0.53114135  0.47244245    -0.25800
H2128       H  0.59224748  0.94397399  0.48867858     0.06800
N2129       N  0.92867822  0.95161658  0.45494458    -0.47000
H2130       H  0.51304223  0.95206623  0.09872842     0.06800
C2131       C  0.55532743  0.56989737  0.06746854     0.42500
C2132       C  0.92255236  0.95155168  0.03031367    -0.06500
Co2133     Co  0.99182069  0.50444799  0.05417748     0.73800
N2134       N  0.56802874  0.95481592  0.04953004    -0.46700
C2135       C  0.94174185  0.56363637  0.42691491     0.42700
N2136       N  0.95191965  0.55528853  0.06673520    -0.46700
Co2137     Co  0.55287464  0.50247483  0.00699068     0.73900
C2138       C  0.57691467  0.55121463  0.46767283    -0.07100
C2139       C  0.96855139  0.94835665  0.42432108    -0.06600
N2140       N  0.94147265  0.53364561  0.02482779    -0.26100
N2141       N  0.54284314  0.94808265  0.43442190    -0.46900
H2142       H  0.98558478  0.55336276  0.40227293     0.06700
C2143       C  0.52713096  0.55658463  0.07522620    -0.07000
Cl2144     Cl  0.49879348  0.50226808  0.00012296    -0.50000
C2145       C  0.55711392  0.94239346  0.07418446     0.42500
H2146       H  0.90436058  0.55819299  0.01067279     0.06700
N2147       N  0.56700946  0.55504049  0.04450657    -0.46700
C2148       C  0.63974854  0.63906942  0.36494277     0.86400
C2149       C  0.67344964  0.63485903  0.36862745    -0.53900
C2150       C  0.69051163  0.65306191  0.35254490     0.09300
C2151       C  0.67216334  0.67379591  0.33404866     0.20300
C2152       C  0.63434970  0.66998580  0.37264830    -0.54600
C2153       C  0.65114677  0.68811803  0.35639040     0.09400
C2154       C  0.63520297  0.63719966  0.33084871    -0.54100
C2155       C  0.65193963  0.65546396  0.31472747     0.10000
H2156       H  0.68286918  0.61905243  0.38301350     0.14500
H2157       H  0.68571393  0.68881454  0.32110296     0.00200
H2158       H  0.61794827  0.67689165  0.38886851     0.14800
H2159       H  0.62113407  0.62228400  0.31960851     0.14600
C2160       C  0.63676795  0.85626691  0.37555105     0.86400
C2161       C  0.63213980  0.86163077  0.34208129    -0.53900
C2162       C  0.64884665  0.84508106  0.32400733     0.09300
C2163       C  0.66911739  0.82481299  0.34056276     0.20300
C2164       C  0.63139897  0.82482417  0.37952802    -0.54600
C2165       C  0.64810801  0.80839261  0.36101257     0.09400
C2166       C  0.67063387  0.86019505  0.37951453    -0.54100
C2167       C  0.68758066  0.84329961  0.36155925     0.10000
H2168       H  0.61765068  0.87758061  0.33307634     0.14500
H2169       H  0.68268304  0.81158252  0.32537511     0.00200
H2170       H  0.61532214  0.81637743  0.39514266     0.14800
H2171       H  0.68046975  0.87517514  0.39472693     0.14600
C2172       C  0.62897459  0.86773225  0.14733193     0.86400
C2173       C  0.66280407  0.87135429  0.14260389    -0.53900
C2174       C  0.68005574  0.85252210  0.15767111     0.09300
C2175       C  0.66151259  0.83233114  0.17671442     0.20300
C2176       C  0.62280097  0.83695755  0.13957072    -0.54600
C2177       C  0.63985740  0.81843734  0.15490154     0.09400
C2178       C  0.62522698  0.86962747  0.18147315    -0.54100
C2179       C  0.64227788  0.85110531  0.19659938     0.10000
H2180       H  0.67212566  0.88758542  0.12864170     0.14500
H2181       H  0.67420479  0.81674978  0.18950816     0.00200
H2182       H  0.60693177  0.83055164  0.12274452     0.14800
H2183       H  0.61183459  0.88486562  0.19329310     0.14600
C2184       C  0.62649590  0.64965253  0.13551319     0.86400
C2185       C  0.62422521  0.64533474  0.16954874    -0.53900
C2186       C  0.64268165  0.66194609  0.18595876     0.09300
C2187       C  0.66221214  0.68107366  0.16679652     0.20300
C2188       C  0.62174694  0.68118383  0.13102097    -0.54600
C2189       C  0.64052498  0.69772253  0.14730597     0.09400
C2190       C  0.65971926  0.64469361  0.12900644    -0.54100
C2191       C  0.67816171  0.66135712  0.14512746     0.10000
H2192       H  0.61091957  0.62923281  0.17989637     0.14500
H2193       H  0.67742790  0.69423467  0.18017751     0.00200
H2194       H  0.60524286  0.68956636  0.11595092     0.14800
H2195       H  0.66810019  0.62911296  0.11347861     0.14600
C2196       C  0.87076809  0.64004159  0.35469462     0.86400
C2197       C  0.87291810  0.63662483  0.32047249    -0.53900
C2198       C  0.85471582  0.65409660  0.30498450     0.09300
C2199       C  0.83582644  0.67321996  0.32498443     0.20300
C2200       C  0.87631451  0.67136961  0.36047340    -0.54600
C2201       C  0.85822906  0.68871883  0.34463108     0.09400
C2202       C  0.83742010  0.63574450  0.36113044    -0.54100
C2203       C  0.81914354  0.65342138  0.34599982     0.10000
H2204       H  0.88598743  0.62086795  0.30912730     0.14500
H2205       H  0.82096407  0.68736974  0.31248727     0.00200
H2206       H  0.89335969  0.67907197  0.37543269     0.14800
H2207       H  0.82902457  0.62025947  0.37658987     0.14600
C2208       C  0.85551944  0.64604740  0.12449322     0.86400
C2209       C  0.82154861  0.64303795  0.12052851    -0.53900
C2210       C  0.80534281  0.65963307  0.13907289     0.09300
C2211       C  0.82397882  0.67769469  0.16005328     0.20300
C2212       C  0.86164438  0.67752653  0.12106795    -0.54600
C2213       C  0.84488742  0.69418173  0.13947023     0.09400
C2214       C  0.86016826  0.64018000  0.15782316    -0.54100
C2215       C  0.84403847  0.65696350  0.17649946     0.10000
H2216       H  0.81060253  0.62844408  0.10573070     0.14500
H2217       H  0.81069523  0.69110878  0.17520124     0.00200
H2218       H  0.87742213  0.68581182  0.10506545     0.14800
H2219       H  0.87485150  0.62395754  0.16595886     0.14600
C2220       C  0.86017860  0.86339909  0.13350979     0.86400
C2221       C  0.86577437  0.86856400  0.16692418    -0.53900
C2222       C  0.84965664  0.85162449  0.18525604     0.09300
C2223       C  0.82937552  0.83107948  0.16849511     0.20300
C2224       C  0.86597944  0.83210137  0.12864567    -0.54600
C2225       C  0.84979955  0.81511883  0.14681423     0.09400
C2226       C  0.82605072  0.86678648  0.13075240    -0.54100
C2227       C  0.80967944  0.84948213  0.14859247     0.10000
H2228       H  0.88058890  0.88461195  0.17535660     0.14500
H2229       H  0.81737737  0.81682395  0.18364323     0.00200
H2230       H  0.88064663  0.82417317  0.11133150     0.14800
H2231       H  0.81571634  0.88295654  0.11769948     0.14600
C2232       C  0.86774309  0.85749618  0.36468567     0.86400
C2233       C  0.83440188  0.86027477  0.37202526    -0.53900
C2234       C  0.81628941  0.84431016  0.35453841     0.09300
C2235       C  0.83328895  0.82647090  0.33152471     0.20300
C2236       C  0.87372675  0.82580460  0.36734997    -0.54600
C2237       C  0.85568028  0.80959158  0.34999465     0.09400
C2238       C  0.87027738  0.86342939  0.33124718    -0.54100
C2239       C  0.85231645  0.84738440  0.31385289     0.10000
H2240       H  0.82593697  0.87357018  0.38977280     0.14500
H2241       H  0.81869852  0.81334717  0.31733212     0.00200
H2242       H  0.89036958  0.81652211  0.38150208     0.14800
H2243       H  0.88494770  0.87925942  0.32212902     0.14600
C2244       C  0.82430055  0.85361497  0.23479495    -0.21400
C2245       C  0.85080991  0.85302823  0.21826822    -0.09500
C2246       C  0.87797920  0.85227755  0.23351341     0.29400
C2247       C  0.87835549  0.85082749  0.26463861    -0.21400
C2248       C  0.85169631  0.84995641  0.28100079    -0.09500
C2249       C  0.82461414  0.85182173  0.26582558     0.29400
F2250       F  0.79849887  0.85258661  0.28099946    -0.20000
H2251       H  0.80327278  0.85579524  0.22371412     0.17800
H2252       H  0.89949852  0.84958647  0.27595524     0.17800
F2253       F  0.90407343  0.85179433  0.21832408    -0.20000
C2254       C  0.87362583  0.73918981  0.13663824    -0.21400
C2255       C  0.84631005  0.72525418  0.13972946    -0.09500
C2256       C  0.82038900  0.74123039  0.14411510     0.29400
C2257       C  0.82198710  0.77024089  0.14642607    -0.21400
C2258       C  0.84926151  0.78417470  0.14400088    -0.09500
C2259       C  0.87516758  0.76839407  0.13871789     0.29400
F2260       F  0.90206093  0.78101461  0.13663137    -0.20000
H2261       H  0.89393473  0.72742534  0.13340677     0.17800
H2262       H  0.80158039  0.78189876  0.14953216     0.17800
F2263       F  0.79323038  0.72903675  0.14525421    -0.20000
C2264       C  0.82447747  0.65838030  0.25885786    -0.21400
C2265       C  0.85227429  0.65401264  0.27203048    -0.09500
C2266       C  0.87731180  0.65040077  0.25355315     0.29400
C2267       C  0.87433949  0.65112728  0.22261663    -0.21400
C2268       C  0.84651166  0.65568827  0.20944308    -0.09500
C2269       C  0.82155631  0.65944330  0.22798949     0.29400
F2270       F  0.79412382  0.66357775  0.21656777    -0.20000
H2271       H  0.80473471  0.66071293  0.27247696     0.17800
H2272       H  0.89404481  0.64881206  0.20893319     0.17800
F2273       F  0.90483045  0.64722919  0.26525049    -0.20000
C2274       C  0.86128153  0.73351842  0.37354287    -0.21400
C2275       C  0.85963627  0.71967675  0.34600227    -0.09500
C2276       C  0.85761094  0.73560505  0.31984694     0.29400
C2277       C  0.85641804  0.76476085  0.32139610    -0.21400
C2278       C  0.85755476  0.77862026  0.34893379    -0.09500
C2279       C  0.86017415  0.76272450  0.37508659     0.29400
F2280       F  0.86033013  0.77530900  0.40220794    -0.20000
H2281       H  0.86244861  0.72166126  0.39396675     0.17800
H2282       H  0.85491335  0.77657615  0.30096274     0.17800
F2283       F  0.85735211  0.72304068  0.29270409    -0.20000
C2284       C  0.72673942  0.64343638  0.16227834    -0.21400
C2285       C  0.71060749  0.66004172  0.14254347    -0.09500
C2286       C  0.72555146  0.67570408  0.12085462     0.29400
C2287       C  0.75656897  0.67537084  0.11961063    -0.21400
C2288       C  0.77273179  0.65917865  0.13976928    -0.09500
C2289       C  0.75769043  0.64269727  0.16067018     0.29400
F2290       F  0.77293289  0.62566613  0.17919117    -0.20000
H2291       H  0.71530692  0.63101319  0.17882774     0.17800
H2292       H  0.76801418  0.68787093  0.10314214     0.17800
F2293       F  0.71013972  0.69149929  0.10123320    -0.20000
C2294       C  0.61320522  0.74350629  0.14504780    -0.21400
C2295       C  0.64021119  0.72879747  0.14652940    -0.09500
C2296       C  0.66685456  0.74404562  0.14856246     0.29400
C2297       C  0.66629809  0.77309163  0.15040061    -0.21400
C2298       C  0.63934772  0.78774578  0.15019321    -0.09500
C2299       C  0.61269084  0.77274603  0.14685823     0.29400
F2300       F  0.58611953  0.78612025  0.14685117    -0.20000
H2301       H  0.59236125  0.73232555  0.14360788     0.17800
H2302       H  0.68719481  0.78419037  0.15199628     0.17800
F2303       F  0.69363869  0.73109388  0.14834212    -0.20000
C2304       C  0.76176219  0.84010933  0.17563419    -0.21400
C2305       C  0.77632218  0.84950027  0.14989260    -0.09500
C2306       C  0.75855424  0.85860522  0.12596191     0.29400
C2307       C  0.72753534  0.85956071  0.12872079    -0.21400
C2308       C  0.71322521  0.85124434  0.15512445    -0.09500
C2309       C  0.73098618  0.84105986  0.17842402     0.29400
F2310       F  0.71927774  0.83247809  0.20457153    -0.20000
H2311       H  0.77383622  0.83211471  0.19431882     0.17800
H2312       H  0.71470935  0.86631499  0.10976362     0.17800
F2313       F  0.77071855  0.86556305  0.09936887    -0.20000
C2314       C  0.66993549  0.85712203  0.24390838    -0.21400
C2315       C  0.64346058  0.85028155  0.22930746    -0.09500
C2316       C  0.61848443  0.84239329  0.24600287     0.29400
C2317       C  0.62034108  0.84076969  0.27697169    -0.21400
C2318       C  0.64718101  0.84669512  0.29142559    -0.09500
C2319       C  0.67200294  0.85494022  0.27478139     0.29400
F2320       F  0.69784955  0.86170923  0.28847675    -0.20000
H2321       H  0.68880227  0.86473434  0.23144194     0.17800
H2322       H  0.60099097  0.83454281  0.28970444     0.17800
F2323       F  0.59256792  0.83588466  0.23231339    -0.20000
C2324       C  0.73625948  0.86876457  0.36279518    -0.21400
C2325       C  0.72064185  0.84340639  0.36140967    -0.09500
C2326       C  0.73679327  0.81831392  0.35881025     0.29400
C2327       C  0.76783412  0.81877031  0.35670401    -0.21400
C2328       C  0.78338856  0.84415659  0.35757899    -0.09500
C2329       C  0.76729767  0.86920167  0.36089390     0.29400
F2330       F  0.78143955  0.89422429  0.36098458    -0.20000
H2331       H  0.72437538  0.88836718  0.36445695     0.17800
H2332       H  0.77977575  0.79921270  0.35471540     0.17800
F2333       F  0.72268473  0.79326878  0.35900012    -0.20000
C2334       C  0.62221201  0.65439217  0.26777853    -0.21400
C2335       C  0.64990813  0.65742277  0.28173363    -0.09500
C2336       C  0.67519935  0.66201619  0.26395714     0.29400
C2337       C  0.67263630  0.66359819  0.23295984    -0.21400
C2338       C  0.64492960  0.66043068  0.21900462    -0.09500
C2339       C  0.61966507  0.65577846  0.23685391     0.29400
F2340       F  0.59228935  0.65330109  0.22461633    -0.20000
H2341       H  0.60227662  0.65129108  0.28089696     0.17800
H2342       H  0.69257941  0.66657786  0.21984956     0.17800
F2343       F  0.70259256  0.66378232  0.27628437    -0.20000
C2344       C  0.77072326  0.62790695  0.35029290    -0.21400
C2345       C  0.78628596  0.65329429  0.34913962    -0.09500
C2346       C  0.77021338  0.67847263  0.35029923     0.29400
C2347       C  0.73918838  0.67815124  0.35181529    -0.21400
C2348       C  0.72354928  0.65278957  0.35239390    -0.09500
C2349       C  0.73967321  0.62757538  0.35182828     0.29400
F2350       F  0.72549708  0.60257733  0.35137942    -0.20000
H2351       H  0.78257775  0.60825674  0.34912531     0.17800
H2352       H  0.72738183  0.69783255  0.35282510     0.17800
F2353       F  0.78445042  0.70344999  0.35073836    -0.20000
C2354       C  0.64703462  0.76218550  0.38667629    -0.21400
C2355       C  0.64611072  0.77758892  0.36020205    -0.09500
C2356       C  0.64488652  0.76337550  0.33281278     0.29400
C2357       C  0.64607214  0.73426897  0.33192530    -0.21400
C2358       C  0.64810847  0.71884095  0.35827964    -0.09500
C2359       C  0.64804642  0.73297303  0.38578817     0.29400
F2360       F  0.65047738  0.71867312  0.41165360    -0.20000
H2361       H  0.64808953  0.77281255  0.40797604     0.17800
H2362       H  0.64537322  0.72372040  0.31055793     0.17800
F2363       F  0.64220273  0.77759121  0.30690602    -0.20000
C2364       C  0.59734226  0.60356512  0.37213337    -0.21400
C2365       C  0.62083303  0.61943924  0.38416914    -0.09500
C2366       C  0.62600119  0.61740360  0.41509723     0.29400
C2367       C  0.60929542  0.59905939  0.43274566    -0.21400
C2368       C  0.58669873  0.58266063  0.42017788    -0.09500
C2369       C  0.58079443  0.58533491  0.38966403     0.29400
F2370       F  0.55921594  0.56999786  0.37634090    -0.20000
H2371       H  0.59080330  0.60506851  0.34921712     0.17800
H2372       H  0.61403752  0.59779464  0.45629329     0.17800
F2373       F  0.64733644  0.63311201  0.42832227    -0.20000
C2374       C  0.58535756  0.90190024  0.14081151    -0.21400
C2375       C  0.60995520  0.88750221  0.12867528    -0.09500
C2376       C  0.61557615  0.89032827  0.09790069     0.29400
C2377       C  0.59827308  0.90812465  0.08048633    -0.21400
C2378       C  0.57433894  0.92291765  0.09294423    -0.09500
C2379       C  0.56788671  0.91940944  0.12332712     0.29400
F2380       F  0.54510984  0.93325314  0.13660961    -0.20000
H2381       H  0.57870405  0.89946528  0.16369925     0.17800
H2382       H  0.60350062  0.91015970  0.05704981     0.17800
F2383       F  0.63783800  0.87579428  0.08450790    -0.20000
C2384       C  0.86354871  0.61394527  0.07914142    -0.21400
C2385       C  0.87509252  0.62780475  0.10428744    -0.09500
C2386       C  0.90556584  0.62416569  0.11063872     0.29400
C2387       C  0.92283003  0.60526051  0.09414344    -0.21400
C2388       C  0.91054406  0.59022287  0.07031492    -0.09500
C2389       C  0.88079066  0.59526830  0.06258793     0.29400
F2390       F  0.86763773  0.58146898  0.03977342    -0.20000
H2391       H  0.84110208  0.61729108  0.07169136     0.17800
H2392       H  0.94585714  0.60220195  0.10021427     0.17800
F2393       F  0.91856248  0.63831313  0.13336272    -0.20000
C2394       C  0.57999547  0.61944409  0.12897376    -0.21400
C2395       C  0.60572302  0.63148509  0.11659119    -0.09500
C2396       C  0.61174409  0.62614307  0.08619519     0.29400
C2397       C  0.59511277  0.60632987  0.07034047    -0.21400
C2398       C  0.57111240  0.59249654  0.08378586    -0.09500
C2399       C  0.56306450  0.60012444  0.11302445     0.29400
F2400       F  0.53948997  0.58835735  0.12696212    -0.20000
H2401       H  0.57262185  0.62474706  0.15118177     0.17800
H2402       H  0.60111698  0.60172136  0.04747514     0.17800
F2403       F  0.63397714  0.63970317  0.07181183    -0.20000
C2404       C  0.91313802  0.86892132  0.39760714    -0.21400
C2405       C  0.88715343  0.87756885  0.38273506    -0.09500
C2406       C  0.87988018  0.90630935  0.38342503     0.29400
C2407       C  0.89696243  0.92522747  0.39978235    -0.21400
C2408       C  0.92236117  0.91627450  0.41476371    -0.09500
C2409       C  0.93065653  0.88813153  0.41324618     0.29400
F2410       F  0.95545842  0.87915463  0.42734929    -0.20000
H2411       H  0.92069719  0.84756975  0.39691219     0.17800
H2412       H  0.89058876  0.94704969  0.40040646     0.17800
F2413       F  0.85617674  0.91619251  0.36814393    -0.20000
C2414       C  0.91452519  0.60578028  0.36093186    -0.21400
C2415       C  0.89086637  0.62121995  0.37349533    -0.09500
C2416       C  0.88627131  0.61922017  0.40453344     0.29400
C2417       C  0.90290921  0.60056053  0.42165441    -0.21400
C2418       C  0.92545243  0.58429908  0.40865653    -0.09500
C2419       C  0.93151665  0.58758105  0.37815211     0.29400
F2420       F  0.95323342  0.57262639  0.36444507    -0.20000
H2421       H  0.92058807  0.60767584  0.33782220     0.17800
H2422       H  0.89819030  0.59889857  0.44522970     0.17800
F2423       F  0.86531524  0.63505750  0.41836734    -0.20000
C2424       C  0.60782108  0.89975479  0.44189212    -0.21400
C2425       C  0.58159580  0.91102829  0.43022675    -0.09500
C2426       C  0.57144652  0.90125469  0.40251852     0.29400
C2427       C  0.58868045  0.88271637  0.38579781    -0.21400
C2428       C  0.61684348  0.87401003  0.39576143    -0.09500
C2429       C  0.62503231  0.88104644  0.42513779     0.29400
F2430       F  0.64951678  0.86987895  0.43789688    -0.20000
H2431       H  0.61541690  0.90574486  0.46381704     0.17800
H2432       H  0.57985130  0.87550552  0.36478990     0.17800
F2433       F  0.54514392  0.90994118  0.39113337    -0.20000
C2434       C  0.86681692  0.89353143  0.08688110    -0.21400
C2435       C  0.87903932  0.88148261  0.11262696    -0.09500
C2436       C  0.90971872  0.88533184  0.11767115     0.29400
C2437       C  0.92631823  0.90364958  0.09988197    -0.21400
C2438       C  0.91319081  0.91741572  0.07572230    -0.09500
C2439       C  0.88347676  0.91125203  0.06878191     0.29400
F2440       F  0.86985601  0.92289283  0.04504237    -0.20000
H2441       H  0.84433388  0.88921233  0.08007080     0.17800
H2442       H  0.94948882  0.90713404  0.10507315     0.17800
F2443       F  0.92367621  0.87156663  0.13994000    -0.20000
C2444       C  0.93008723  0.93880638  0.55883252     0.42400
N2445       N  0.95933656  0.97343589  0.55045228     0.01200
C2446       C  0.97005315  0.54984237  0.92021014    -0.06600
H2447       H  0.98333477  0.94302555  0.90611068     0.06700
C2448       C  0.57448988  0.94850840  0.97346121    -0.07000
Co2449     Co  0.94487091  0.00217917  0.99314516     0.74200
N2450       N  0.97229110  0.96951688  0.94365797    -0.26200
Co2451     Co  0.50551522  0.99980578  0.94618827     0.74100
C2452       C  0.56575214  0.93371637  0.94624108     0.42500
N2453       N  0.54816682  0.97356092  0.54129000     0.00900
N2454       N  0.53753002  0.96932756  0.95258778     0.01000
N2455       N  0.93042406  0.55098561  0.95128520    -0.47000
H2456       H  0.90541797  0.94618303  0.51451881     0.06700
N2457       N  0.94897256  0.97065499  0.96145675     0.01200
N2458       N  0.53857159  0.53011307  0.94942215     0.01000
C2459       C  0.56953752  0.56262091  0.93843112     0.42600
N2460       N  0.52491199  0.97447412  0.55918264    -0.25600
C2461       C  0.92170501  0.55440114  0.52671118    -0.06500
N2462       N  0.95313339  0.95358562  0.56999966    -0.46700
N2463       N  0.54564403  0.54835188  0.92857624    -0.47000
C2464       C  0.92854868  0.56875212  0.55462916     0.42400
N2465       N  0.94971520  0.53146465  0.95912976     0.01200
N2466       N  0.52462514  0.53502089  0.55629456    -0.25600
N2467       N  0.94160147  0.97279428  0.52716521    -0.26100
N2468       N  0.54800089  0.53458188  0.53848963     0.00900
H2469       H  0.51126419  0.56160587  0.59247379     0.06800
H2470       H  0.59530951  0.55617480  0.98214688     0.06800
N2471       N  0.97294583  0.53029857  0.94120718    -0.26200
N2472       N  0.55573945  0.97024089  0.97550103    -0.25800
N2473       N  0.95903069  0.53468441  0.54821222     0.01200
C2474       C  0.93978666  0.93643004  0.93213023     0.43000
C2475       C  0.52836388  0.95539761  0.58057754    -0.07000
N2476       N  0.55663282  0.53117880  0.97243182    -0.25800
H2477       H  0.59225603  0.94405342  0.98882230     0.06800
N2478       N  0.92867840  0.95162612  0.95490988    -0.47000
H2479       H  0.51300761  0.95203423  0.59872936     0.06800
C2480       C  0.55536558  0.56982999  0.56747548     0.42500
C2481       C  0.92250110  0.95158738  0.53031616    -0.06500
Co2482     Co  0.99182170  0.50441599  0.55417951     0.73800
N2483       N  0.56800326  0.95472035  0.54953866    -0.46700
C2484       C  0.94175630  0.56358305  0.92687827     0.42700
N2485       N  0.95195749  0.55529177  0.56673917    -0.46700
Co2486     Co  0.55286944  0.50240796  0.50698359     0.73900
C2487       C  0.57692819  0.55124025  0.96765135    -0.07100
C2488       C  0.96856225  0.94835962  0.92429988    -0.06600
N2489       N  0.94149369  0.53365342  0.52483615    -0.26100
N2490       N  0.54288855  0.94804959  0.93451832    -0.46900
H2491       H  0.98560493  0.55331213  0.90224525     0.06700
C2492       C  0.52716291  0.55652735  0.57523159    -0.07000
Cl2493     Cl  0.49878044  0.50224533  0.50012621    -0.50000
C2494       C  0.55707832  0.94231220  0.57420199     0.42500
H2495       H  0.90441664  0.55823347  0.51066331     0.06700
N2496       N  0.56704434  0.55496273  0.54451786    -0.46700
C2497       C  0.63982528  0.63906079  0.86493654     0.86400
C2498       C  0.67352809  0.63485223  0.86860550    -0.53900
C2499       C  0.69058059  0.65306573  0.85252590     0.09300
C2500       C  0.67222257  0.67380592  0.83404730     0.20300
C2501       C  0.63442678  0.66997251  0.87266130    -0.54600
C2502       C  0.65121544  0.68811369  0.85640617     0.09400
C2503       C  0.63526947  0.63720335  0.83084598    -0.54100
C2504       C  0.65199147  0.65547940  0.81472643     0.10000
H2505       H  0.68295644  0.61903870  0.88297710     0.14500
H2506       H  0.68576605  0.68883353  0.82110621     0.00200
H2507       H  0.61803322  0.67686934  0.88889388     0.14800
H2508       H  0.62121158  0.62227766  0.81960654     0.14600
C2509       C  0.63684438  0.85622314  0.87583115     0.86400
C2510       C  0.63219765  0.86168751  0.84238474    -0.53900
C2511       C  0.64886034  0.84516690  0.82423582     0.09300
C2512       C  0.66911963  0.82482712  0.84071712     0.20300
C2513       C  0.63143340  0.82477836  0.87971311    -0.54600
C2514       C  0.64811192  0.80837782  0.86114028     0.09400
C2515       C  0.67071938  0.86009826  0.87977793    -0.54100
C2516       C  0.68762449  0.84323288  0.86175180     0.10000
H2517       H  0.61770363  0.87767586  0.83346012     0.14500
H2518       H  0.68265647  0.81161515  0.82548568     0.00200
H2519       H  0.61536934  0.81630762  0.89532607     0.14800
H2520       H  0.68060041  0.87504044  0.89500020     0.14600
C2521       C  0.62889833  0.86769361  0.64748075     0.86400
C2522       C  0.66273755  0.87125119  0.64274893    -0.53900
C2523       C  0.67997054  0.85240735  0.65783464     0.09300
C2524       C  0.66137398  0.83229852  0.67693710     0.20300
C2525       C  0.62266644  0.83691752  0.63978937    -0.54600
C2526       C  0.63969122  0.81840263  0.65515572     0.09400
C2527       C  0.62516126  0.86967039  0.68161560    -0.54100
C2528       C  0.64218208  0.85115474  0.69679207     0.10000
H2529       H  0.67207147  0.88745860  0.62876697     0.14500
H2530       H  0.67399046  0.81669597  0.68976293     0.00200
H2531       H  0.60679829  0.83050291  0.62296536     0.14800
H2532       H  0.61180689  0.88497574  0.69338347     0.14600
C2533       C  0.62650198  0.64963211  0.63551183     0.86400
C2534       C  0.62423489  0.64529823  0.66954718    -0.53900
C2535       C  0.64267885  0.66191831  0.68596379     0.09300
C2536       C  0.66219019  0.68106809  0.66681102     0.20300
C2537       C  0.62172191  0.68116278  0.63103879    -0.54600
C2538       C  0.64048409  0.69770627  0.64733572     0.09400
C2539       C  0.65973238  0.64470249  0.62900594    -0.54100
C2540       C  0.67816018  0.66137327  0.64513714     0.10000
H2541       H  0.61093703  0.62918551  0.67988638     0.14500
H2542       H  0.67739304  0.69424045  0.68019451     0.00200
H2543       H  0.60520119  0.68954296  0.61598534     0.14800
H2544       H  0.66812950  0.62912753  0.61348071     0.14600
C2545       C  0.87082236  0.64002029  0.85468532     0.86400
C2546       C  0.87298570  0.63662975  0.82046228    -0.53900
C2547       C  0.85479375  0.65411871  0.80498550     0.09300
C2548       C  0.83590374  0.67323122  0.82499502     0.20300
C2549       C  0.87637838  0.67134187  0.86049623    -0.54600
C2550       C  0.85830619  0.68870747  0.84466048     0.09400
C2551       C  0.83747162  0.63572556  0.86110348    -0.54100
C2552       C  0.81920772  0.65342110  0.84598502     0.10000
H2553       H  0.88605140  0.62087554  0.80910803     0.14500
H2554       H  0.82104920  0.68739479  0.81250617     0.00200
H2555       H  0.89342543  0.67902751  0.87546301     0.14800
H2556       H  0.82906440  0.62022683  0.87654105     0.14600
C2557       C  0.85552475  0.64599143  0.62451494     0.86400
C2558       C  0.82154980  0.64297807  0.62057105    -0.53900
C2559       C  0.80535489  0.65959237  0.63911057     0.09300
C2560       C  0.82400823  0.67767172  0.66005822     0.20300
C2561       C  0.86164883  0.67746343  0.62105071    -0.54600
C2562       C  0.84490588  0.69413530  0.63944286     0.09400
C2563       C  0.86019207  0.64015190  0.65784616    -0.54100
C2564       C  0.84407588  0.65695433  0.67651281     0.10000
H2565       H  0.81059897  0.62837730  0.60578438     0.14500
H2566       H  0.81073790  0.69110244  0.67520086     0.00200
H2567       H  0.87741507  0.68573227  0.60502685     0.14800
H2568       H  0.87487719  0.62393452  0.66598998     0.14600
C2569       C  0.86012137  0.86336104  0.63345043     0.86400
C2570       C  0.86572917  0.86850772  0.66686515    -0.53900
C2571       C  0.84964287  0.85153774  0.68519419     0.09300
C2572       C  0.82938156  0.83098316  0.66842266     0.20300
C2573       C  0.86595544  0.83207308  0.62855253    -0.54600
C2574       C  0.84980651  0.81506253  0.64671428     0.09400
C2575       C  0.82598549  0.86671675  0.63071919    -0.54100
C2576       C  0.80963808  0.84937769  0.64855134     0.10000
H2577       H  0.88052002  0.88457553  0.67529531     0.14500
H2578       H  0.81744313  0.81668994  0.68356900     0.00200
H2579       H  0.88061734  0.82417211  0.61121980     0.14800
H2580       H  0.81563998  0.88290100  0.61770162     0.14600
C2581       C  0.86776134  0.85749045  0.86464474     0.86400
C2582       C  0.83442581  0.86022919  0.87201365    -0.53900
C2583       C  0.81631748  0.84424564  0.85454209     0.09300
C2584       C  0.83332060  0.82641986  0.83151803     0.20300
C2585       C  0.87378750  0.82580712  0.86731078    -0.54600
C2586       C  0.85574822  0.80957165  0.84997553     0.09400
C2587       C  0.87025560  0.86342501  0.83120331    -0.54100
C2588       C  0.85230526  0.84735339  0.81382073     0.10000
H2589       H  0.82596160  0.87351345  0.88977080     0.14500
H2590       H  0.81873784  0.81326811  0.81734805     0.00200
H2591       H  0.89044506  0.81654381  0.88145995     0.14800
H2592       H  0.88489472  0.87927604  0.82207704     0.14600
C2593       C  0.82425404  0.85327503  0.73472967    -0.21400
C2594       C  0.85078006  0.85293895  0.71821446    -0.09500
C2595       C  0.87794590  0.85245104  0.73347601     0.29400
C2596       C  0.87832361  0.85101617  0.76460376    -0.21400
C2597       C  0.85166740  0.84990890  0.78095925    -0.09500
C2598       C  0.82457712  0.85150987  0.76576559     0.29400
F2599       F  0.79844203  0.85204870  0.78091630    -0.20000
H2600       H  0.80321842  0.85523718  0.72364665     0.17800
H2601       H  0.89947450  0.84997118  0.77592450     0.17800
F2602       F  0.90405503  0.85220370  0.71830722    -0.20000
C2603       C  0.87363841  0.73913973  0.63650958    -0.21400
C2604       C  0.84632789  0.72520413  0.63965512    -0.09500
C2605       C  0.82040872  0.74117843  0.64404402     0.29400
C2606       C  0.82200511  0.77018734  0.64632749    -0.21400
C2607       C  0.84927566  0.78412262  0.64387142    -0.09500
C2608       C  0.87517791  0.76834571  0.63855814     0.29400
F2609       F  0.90206496  0.78097003  0.63641639    -0.20000
H2610       H  0.89394513  0.72737536  0.63326356     0.17800
H2611       H  0.80159823  0.78184209  0.64944580     0.17800
F2612       F  0.79325248  0.72898372  0.64521895    -0.20000
C2613       C  0.82454925  0.65842211  0.75887124    -0.21400
C2614       C  0.85234903  0.65404970  0.77203476    -0.09500
C2615       C  0.87738182  0.65043400  0.75355259     0.29400
C2616       C  0.87439925  0.65115040  0.72261757    -0.21400
C2617       C  0.84656594  0.65570634  0.70945348    -0.09500
C2618       C  0.82161798  0.65947520  0.72800511     0.29400
F2619       F  0.79418160  0.66360523  0.71659033    -0.20000
H2620       H  0.80481046  0.66075861  0.77249526     0.17800
H2621       H  0.89409899  0.64882661  0.70892759     0.17800
F2622       F  0.90490345  0.64726274  0.76524356    -0.20000
C2623       C  0.86138777  0.73351253  0.87356293    -0.21400
C2624       C  0.85974083  0.71966263  0.84602709    -0.09500
C2625       C  0.85772747  0.73558137  0.81986470     0.29400
C2626       C  0.85652668  0.76473536  0.82140127    -0.21400
C2627       C  0.85765148  0.77860349  0.84893275    -0.09500
C2628       C  0.86027879  0.76271959  0.87509365     0.29400
F2629       F  0.86043590  0.77531591  0.90220902    -0.20000
H2630       H  0.86255218  0.72166198  0.89399135     0.17800
H2631       H  0.85502062  0.77654296  0.80096286     0.17800
F2632       F  0.85748104  0.72300845  0.79272629    -0.20000
C2633       C  0.72673091  0.64344077  0.66231037    -0.21400
C2634       C  0.71061118  0.66006437  0.64258111    -0.09500
C2635       C  0.72557197  0.67574844  0.62092232     0.29400
C2636       C  0.75658984  0.67539243  0.61967902    -0.21400
C2637       C  0.77274059  0.65916557  0.63981618    -0.09500
C2638       C  0.75768391  0.64269040  0.66071300     0.29400
F2639       F  0.77291303  0.62565833  0.67924430    -0.20000
H2640       H  0.71528729  0.63101190  0.67884730     0.17800
H2641       H  0.76804536  0.68790083  0.60322493     0.17800
F2642       F  0.71017580  0.69158348  0.60132540    -0.20000
C2643       C  0.61309489  0.74346049  0.64524170    -0.21400
C2644       C  0.64012420  0.72877953  0.64661740    -0.09500
C2645       C  0.66675322  0.74404999  0.64863334     0.29400
C2646       C  0.66616610  0.77309009  0.65054736    -0.21400
C2647       C  0.63919766  0.78771536  0.65043102    -0.09500
C2648       C  0.61254979  0.77269675  0.64712816     0.29400
F2649       F  0.58596515  0.78604869  0.64721992    -0.20000
H2650       H  0.59226249  0.73225772  0.64382505     0.17800
H2651       H  0.68705285  0.78420823  0.65212411     0.17800
F2652       F  0.69355138  0.73112435  0.64832604    -0.20000
C2653       C  0.76173480  0.83970687  0.67552925    -0.21400
C2654       C  0.77626792  0.84935158  0.64987493    -0.09500
C2655       C  0.75845801  0.85864412  0.62606005     0.29400
C2656       C  0.72744128  0.85957947  0.62887391    -0.21400
C2657       C  0.71315255  0.85104899  0.65521704    -0.09500
C2658       C  0.73095714  0.84060981  0.67836019     0.29400
F2659       F  0.71932323  0.83169799  0.70440988    -0.20000
H2660       H  0.77380861  0.83154210  0.69411097     0.17800
H2661       H  0.71460832  0.86649515  0.60999291     0.17800
F2662       F  0.77056523  0.86582041  0.59950934    -0.20000
C2663       C  0.67007255  0.85660634  0.74405066    -0.21400
C2664       C  0.64338539  0.85040607  0.72951565    -0.09500
C2665       C  0.61822170  0.84321547  0.74629781     0.29400
C2666       C  0.62010291  0.84160611  0.77726748    -0.21400
C2667       C  0.64714269  0.84684937  0.79165062    -0.09500
C2668       C  0.67215239  0.85442747  0.77492201     0.29400
F2669       F  0.69821951  0.86056952  0.78852987    -0.20000
H2670       H  0.68911096  0.86374601  0.73153573     0.17800
H2671       H  0.60060789  0.83588973  0.79005427     0.17800
F2672       F  0.59209405  0.83733221  0.73269431    -0.20000
C2673       C  0.73630176  0.86867993  0.86294694    -0.21400
C2674       C  0.72068213  0.84332624  0.86154322    -0.09500
C2675       C  0.73682431  0.81823580  0.85885621     0.29400
C2676       C  0.76786288  0.81869331  0.85670064    -0.21400
C2677       C  0.78341926  0.84407877  0.85760519    -0.09500
C2678       C  0.76733309  0.86911900  0.86098839     0.29400
F2679       F  0.78147043  0.89414360  0.86109255    -0.20000
H2680       H  0.72442205  0.88828100  0.86466597     0.17800
H2681       H  0.77980029  0.79913836  0.85465497     0.17800
F2682       F  0.72271033  0.79319267  0.85900856    -0.20000
C2683       C  0.62224498  0.65436798  0.76779113    -0.21400
C2684       C  0.64994276  0.65744081  0.78173492    -0.09500
C2685       C  0.67522009  0.66205952  0.76394771     0.29400
C2686       C  0.67264296  0.66361819  0.73295189    -0.21400
C2687       C  0.64493630  0.66040520  0.71900761    -0.09500
C2688       C  0.61968474  0.65572948  0.73686674     0.29400
F2689       F  0.59230910  0.65320382  0.72464000    -0.20000
H2690       H  0.60231828  0.65124795  0.78091753     0.17800
H2691       H  0.69257826  0.66661594  0.71983480     0.17800
F2692       F  0.70261592  0.66387070  0.77626154    -0.20000
C2693       C  0.77078594  0.62791022  0.85023111    -0.21400
C2694       C  0.78635087  0.65329710  0.84911098    -0.09500
C2695       C  0.77028241  0.67847678  0.85029601     0.29400
C2696       C  0.73925706  0.67815708  0.85180982    -0.21400
C2697       C  0.72361676  0.65279529  0.85236275    -0.09500
C2698       C  0.73973723  0.62758036  0.85176590     0.29400
F2699       F  0.72555813  0.60258427  0.85128856    -0.20000
H2700       H  0.78263804  0.60825971  0.84904127     0.17800
H2701       H  0.72745144  0.69783810  0.85284088     0.17800
F2702       F  0.78452400  0.70345166  0.85076504    -0.20000
C2703       C  0.64709957  0.76215276  0.88675554    -0.21400
C2704       C  0.64613409  0.77757609  0.86029652    -0.09500
C2705       C  0.64490947  0.76338618  0.83289424     0.29400
C2706       C  0.64611553  0.73428070  0.83197975    -0.21400
C2707       C  0.64817840  0.71883374  0.85831987    -0.09500
C2708       C  0.64813759  0.73294342  0.88584033     0.29400
F2709       F  0.65061510  0.71862546  0.91168989    -0.20000
H2710       H  0.64816854  0.77276310  0.90806395     0.17800
H2711       H  0.64540963  0.72374786  0.81060397     0.17800
F2712       F  0.64220726  0.77762436  0.80700277    -0.20000
C2713       C  0.59738468  0.60359231  0.87211450    -0.21400
C2714       C  0.62091063  0.61942118  0.88415090    -0.09500
C2715       C  0.62610333  0.61734207  0.91506993     0.29400
C2716       C  0.60938720  0.59899792  0.93270678    -0.21400
C2717       C  0.58675592  0.58264116  0.92013782    -0.09500
C2718       C  0.58082959  0.58535727  0.88963326     0.29400
F2719       F  0.55921506  0.57006564  0.87631010    -0.20000
H2720       H  0.59081878  0.60514275  0.84920952     0.17800
H2721       H  0.61414873  0.59770247  0.95624799     0.17800
F2722       F  0.64746870  0.63301097  0.92829900    -0.20000
C2723       C  0.58522095  0.90176672  0.64086137    -0.21400
C2724       C  0.60989891  0.88745128  0.62878216    -0.09500
C2725       C  0.61558129  0.89030800  0.59802091     0.29400
C2726       C  0.59828959  0.90809677  0.58058165    -0.21400
C2727       C  0.57429012  0.92283496  0.59298953    -0.09500
C2728       C  0.56775181  0.91925750  0.62334881     0.29400
F2729       F  0.54488036  0.93300162  0.63658255    -0.20000
H2730       H  0.57850504  0.89926560  0.66372514     0.17800
H2731       H  0.60357575  0.91016449  0.55716177     0.17800
F2732       F  0.63788463  0.87580547  0.58465991    -0.20000
C2733       C  0.86356341  0.61389780  0.57916729    -0.21400
C2734       C  0.87510006  0.62774986  0.60431840    -0.09500
C2735       C  0.90557903  0.62413774  0.61066164     0.29400
C2736       C  0.92285944  0.60525846  0.59415311    -0.21400
C2737       C  0.91058454  0.59022820  0.57031545    -0.09500
C2738       C  0.88082577  0.59525617  0.56259137     0.29400
F2739       F  0.86768796  0.58147595  0.53975536    -0.20000
H2740       H  0.84111026  0.61722847  0.57172935     0.17800
H2741       H  0.94589026  0.60221554  0.60021882     0.17800
F2742       F  0.91856806  0.63829095  0.63338615    -0.20000
C2743       C  0.58000428  0.61942345  0.62895729    -0.21400
C2744       C  0.60574131  0.63145376  0.61658336    -0.09500
C2745       C  0.61177884  0.62609133  0.58619363     0.29400
C2746       C  0.59515545  0.60626694  0.57034282    -0.21400
C2747       C  0.57114666  0.59244163  0.58378393    -0.09500
C2748       C  0.56308153  0.60009307  0.61301184     0.29400
F2749       F  0.53949719  0.58833859  0.62694464    -0.20000
H2750       H  0.57262066  0.62474161  0.65115847     0.17800
H2751       H  0.60117198  0.60164405  0.54748391     0.17800
F2752       F  0.63401623  0.63964552  0.57181082    -0.20000
C2753       C  0.91318759  0.86895770  0.89749780    -0.21400
C2754       C  0.88716310  0.87758110  0.88268074    -0.09500
C2755       C  0.87984262  0.90631079  0.88341601     0.29400
C2756       C  0.89691642  0.92523574  0.89977657    -0.21400
C2757       C  0.92235424  0.91630212  0.91470791    -0.09500
C2758       C  0.93069593  0.88817468  0.91313563     0.29400
F2759       F  0.95553404  0.87921727  0.92718853    -0.20000
H2760       H  0.92078806  0.84762019  0.89675749     0.17800
H2761       H  0.89050676  0.94704782  0.90044016     0.17800
F2762       F  0.85610150  0.91617590  0.86817944    -0.20000
C2763       C  0.91457111  0.60575436  0.86090980    -0.21400
C2764       C  0.89090288  0.62117949  0.87347481    -0.09500
C2765       C  0.88628262  0.61915071  0.90450605     0.29400
C2766       C  0.90291273  0.60048338  0.92161922    -0.21400
C2767       C  0.92547090  0.58424257  0.90862146    -0.09500
C2768       C  0.93155477  0.58754560  0.87812399     0.29400
F2769       F  0.95328585  0.57260744  0.86441911    -0.20000
H2770       H  0.92064876  0.60767174  0.83780595     0.17800
H2771       H  0.89817752  0.59880143  0.94518960     0.17800
F2772       F  0.86531092  0.63496848  0.91834133    -0.20000
C2773       C  0.60795403  0.89985307  0.94209803    -0.21400
C2774       C  0.58164961  0.91098644  0.93045668    -0.09500
C2775       C  0.57143886  0.90104440  0.90284118     0.29400
C2776       C  0.58868185  0.88247665  0.88616926    -0.21400
C2777       C  0.61692340  0.87393544  0.89607186    -0.09500
C2778       C  0.62518815  0.88113517  0.92538283     0.29400
F2779       F  0.64974317  0.87009953  0.93813459    -0.20000
H2780       H  0.61560104  0.90596963  0.96396547     0.17800
H2781       H  0.57982753  0.87514300  0.86521706     0.17800
F2782       F  0.54507312  0.90960376  0.89149334    -0.20000
C2783       C  0.86671988  0.89359925  0.58688552    -0.21400
C2784       C  0.87896416  0.88147680  0.61258175    -0.09500
C2785       C  0.90965507  0.88528410  0.61759420     0.29400
C2786       C  0.92625538  0.90361767  0.59982457    -0.21400
C2787       C  0.91311580  0.91744318  0.57571110    -0.09500
C2788       C  0.88338176  0.91133324  0.56880112     0.29400
F2789       F  0.86974667  0.92303892  0.54510590    -0.20000
H2790       H  0.84422085  0.88932597  0.58009749     0.17800
H2791       H  0.94943801  0.90706355  0.60499110     0.17800
F2792       F  0.92362303  0.87146009  0.63981519    -0.20000
loop_ 
_geom_bond_atom_site_label_1 
_geom_bond_atom_site_label_2 
_geom_bond_distance 
_geom_bond_site_symmetry_2 
_ccdc_geom_bond_type 
C1           N19   1.353       .  A
C1           C38   1.465       .  S
C1          C344   1.487       .  S
N2           N19   1.327       .  A
N2           N24   1.319       .  A
N2         Co737   2.091       .  S
C3           N28   1.339       .  A
C3           C41   1.463       .  S
C3           H48   1.080       .  S
H4           C45   1.082       .  S
C5           N29   1.343       .  A
C5            C9   1.466       .  S
C5           H34   1.081       .  S
Co6          N14   2.078       .  S
Co6         N373   2.089       .  S
Co6        N1093   2.073       .  S
Co6         N720   2.091       .  S
Co6       Cl2493   2.450       .  S
N7           C45   1.343       .  A
N7           N14   1.319       .  A
N7        Co1404   2.087       .  S
Co8          N11   2.073       .  S
Co8        N1403   2.087   1_455  S
Co8        N2122   2.083   1_455  S
Co8         N713   2.084       .  S
Co8       Cl1097   2.444   1_455  S
C9           N47   1.348       .  A
C9          C331   1.479       .  S
N10          N17   1.319       .  A
N10          N40   1.325       .  A
N10        Co741   2.085       .  S
N11          N29   1.320       .  A
N11          N47   1.321       .  A
N12          C41   1.353       .  A
N12          N22   1.326       .  A
H13          C38   1.080       .  S
N14          N35   1.324       .  A
N15          N33   1.319       .  A
N15          N20   1.322       .  A
N15        Co706   2.084   1_545  S
C16          N20   1.350       .  A
C16          C44   1.464       .  S
C16         C274   1.483       .  S
N17          C32   1.339       .  A
N17       Co2133   2.081   1_455  S
C18          N46   1.337       .  A
C18          C21   1.462       .  S
C18          H52   1.080       .  S
C21          N42   1.353       .  A
C21         C294   1.482       .  S
N22          N28   1.319       .  A
N22        Co704   2.091       .  S
N23          C49   1.338       .  A
N23          N25   1.320       .  A
N23       Co1435   2.084   1_455  S
N24          C38   1.339       .  A
N24        Co355   2.089   1_554  S
N25          N53   1.327       .  A
N25         Co43   2.098       .  S
H26          C49   1.080       .  S
H27          C44   1.081       .  S
N28       Co2102   2.083   1_545  S
N29       Co1090   2.093       .  S
N30          N42   1.326       .  A
N30          N46   1.318       .  A
N30         Co39   2.088       .  S
C31          N35   1.348       .  A
C31          C45   1.459       .  S
C31         C314   1.468       .  S
C32          C51   1.463       .  S
C32          H36   1.080       .  S
N33          C44   1.344       .  A
N33        Co392   2.086       .  S
C37          N53   1.355       .  A
C37          C49   1.463       .  S
C37         C304   1.487       .  S
Co39        N700   2.091   1_545  S
Co39       N2111   2.081   1_545  S
Co39       N1419   2.084       .  S
Co39      Cl1446   2.450       .  S
N40          C51   1.351       .  A
C41         C324   1.484       .  S
Co43        N708   2.085   1_545  S
Co43       N1076   2.092   1_544  S
Co43        N382   2.086   1_554  S
Co43        Cl50   2.457   1_455  S
N46       Co1053   2.073   1_554  S
Cl50      Co2449   2.450   1_554  S
Cl50      Co1055   2.444   1_644  S
Cl50      Co1435   2.450       .  S
C51         C284   1.482       .  S
C54          C55   1.541       .  S
C54          C60   1.549       .  S
C54          C58   1.538       .  S
C54         C271   1.536       .  S
C55          H62   1.085       .  S
C55          C56   1.370       .  D
C56          C57   1.540       .  S
C56         C254   1.488       .  S
C57          C61   1.534       .  S
C57          C59   1.536       .  S
C57          H63   1.109       .  S
C58          H64   1.086       .  S
C58          C59   1.365       .  D
C59         C264   1.479       .  S
C60          H65   1.080       .  S
C60          C61   1.364       .  D
C61         C241   1.490       .  S
C66          C67   1.542       .  S
C66          C72   1.548       .  S
C66          C70   1.536       .  S
C66         C334   1.529       .  S
C67          H74   1.085       .  S
C67          C68   1.357       .  D
C68          C69   1.530       .  S
C68         C224   1.469       .  S
C69          C73   1.537       .  S
C69          C71   1.536       .  S
C69          H75   1.110       .  S
C70          H76   1.086       .  S
C70          C71   1.366       .  D
C71         C261   1.478       .  S
C72          H77   1.084       .  S
C72          C73   1.370       .  D
C73         C231   1.489       .  S
C78          C79   1.548       .  S
C78          C84   1.545       .  S
C78          C82   1.538       .  S
C78         C281   1.532       .  S
C79          H86   1.085       .  S
C79          C80   1.373       .  D
C80          C81   1.539       .  S
C80         C214   1.499       .  S
C81          C85   1.531       .  S
C81          C83   1.535       .  S
C81          H87   1.105       .  S
C82          H88   1.086       .  S
C82          C83   1.364       .  D
C83         C204   1.484       .  S
C84          H89   1.082       .  S
C84          C85   1.360       .  D
C85         C221   1.472       .  S
C90          C91   1.548       .  S
C90          C96   1.542       .  S
C90          C94   1.539       .  S
C90         C301   1.535       .  S
C91          H98   1.083       .  S
C91          C92   1.366       .  D
C92          C93   1.535       .  S
C92         C244   1.491       .  S
C93          C97   1.530       .  S
C93          C95   1.540       .  S
C93          H99   1.108       .  S
C94         H100   1.086       .  S
C94          C95   1.370       .  D
C95         C201   1.489       .  S
C96         H101   1.086       .  S
C96          C97   1.361       .  D
C97         C191   1.467       .  S
C102        C103   1.549       .  S
C102        C108   1.543       .  S
C102        C106   1.542       .  S
C102        C321   1.536       .  S
C103        H110   1.081       .  S
C103        C104   1.366       .  D
C104        C105   1.535       .  S
C104        C171   1.486       .  S
C105        C109   1.536       .  S
C105        C107   1.533       .  S
C105        H111   1.109       .  S
C106        H112   1.086       .  S
C106        C107   1.368       .  D
C107        C181   1.485       .  S
C108        H113   1.086       .  S
C108        C109   1.366       .  D
C109        C251   1.486       .  S
C114        C115   1.548       .  S
C114        C120   1.541       .  S
C114        C118   1.541       .  S
C114        C291   1.533       .  S
C115        H122   1.083       .  S
C115        C116   1.359       .  D
C116        C117   1.530       .  S
C116        C194   1.469       .  S
C117        C121   1.536       .  S
C117        C119   1.539       .  S
C117        H123   1.107       .  S
C118        H124   1.086       .  S
C118        C119   1.370       .  D
C119        C161   1.489       .  S
C120        H125   1.086       .  S
C120        C121   1.366       .  D
C121        C174   1.487       .  S
C126        C127   1.543       .  S
C126        C132   1.551       .  S
C126        C130   1.536       .  S
C126        C341   1.535       .  S
C127        H134   1.086       .  S
C127        C128   1.366       .  D
C128        C129   1.539       .  S
C128        C151   1.486       .  S
C129        C133   1.542       .  S
C129        C131   1.538       .  S
C129        H135   1.106       .  S
C130        H136   1.086       .  S
C130        C131   1.365       .  D
C131        C164   1.487       .  S
C132        H137   1.080       .  S
C132        C133   1.370       .  D
C133        C211   1.503       .  S
C138        C139   1.542       .  S
C138        C144   1.535       .  S
C138        C142   1.546       .  S
C138        C311   1.531       .  S
C139        H146   1.086       .  S
C139        C140   1.366       .  D
C140        C141   1.539       .  S
C140        C234   1.488       .  S
C141        C145   1.540       .  S
C141        C143   1.540       .  S
C141        H147   1.110       .  S
C142        H148   1.082       .  S
C142        C143   1.368       .  D
C143        C184   1.486       .  S
C144        H149   1.087       .  S
C144        C145   1.362       .  D
C145        C154   1.483       .  S
C150        H157   1.077       .  S
C150        C151   1.404       .  A
C150        C155   1.398       .  A
C151        C152   1.405       .  A
C152        C153   1.401       .  A
C152        F159   1.357       .  S
C153        H158   1.083       .  S
C153        C154   1.406       .  A
C154        C155   1.403       .  A
C155        F156   1.358       .  S
C160        H167   1.083       .  S
C160        C161   1.407       .  A
C160        C165   1.403       .  A
C161        C162   1.408       .  A
C162        C163   1.394       .  A
C162        F169   1.357       .  S
C163        H168   1.083       .  S
C163        C164   1.402       .  A
C164        C165   1.409       .  A
C165        F166   1.357       .  S
C170        H177   1.083       .  S
C170        C171   1.403       .  A
C170        C175   1.395       .  A
C171        C172   1.408       .  A
C172        C173   1.398       .  A
C172        F179   1.357       .  S
C173        H178   1.083       .  S
C173        C174   1.406       .  A
C174        C175   1.408       .  A
C175        F176   1.355       .  S
C180        H187   1.083       .  S
C180        C181   1.403       .  A
C180        C185   1.401       .  A
C181        C182   1.408       .  A
C182        C183   1.398       .  A
C182        F189   1.358       .  S
C183        H188   1.084       .  S
C183        C184   1.402       .  A
C184        C185   1.409       .  A
C185        F186   1.357       .  S
C190        H197   1.084       .  S
C190        C191   1.400       .  A
C190        C195   1.396       .  A
C191        C192   1.403       .  A
C192        C193   1.398       .  A
C192        F199   1.358       .  S
C193        H198   1.083       .  S
C193        C194   1.401       .  A
C194        C195   1.403       .  A
C195        F196   1.357       .  S
C200        H207   1.083       .  S
C200        C201   1.407       .  A
C200        C205   1.402       .  A
C201        C202   1.408       .  A
C202        C203   1.393       .  A
C202        F209   1.356       .  S
C203        H208   1.084       .  S
C203        C204   1.402       .  A
C204        C205   1.407       .  A
C205        F206   1.357       .  S
C210        H217   1.074       .  S
C210        C211   1.404       .  A
C210        C215   1.392       .  A
C211        C212   1.414       .  A
C212        C213   1.403       .  A
C212        F219   1.356       .  S
C213        H218   1.082       .  S
C213        C214   1.408       .  A
C214        C215   1.409       .  A
C215        F216   1.352       .  S
C220        H227   1.081       .  S
C220        C221   1.401       .  A
C220        C225   1.396       .  A
C221        C222   1.403       .  A
C222        C223   1.397       .  A
C222        F229   1.357       .  S
C223        H228   1.084       .  S
C223        C224   1.403       .  A
C224        C225   1.401       .  A
C225        F226   1.358       .  S
C230        H237   1.082       .  S
C230        C231   1.405       .  A
C230        C235   1.400       .  A
C231        C232   1.408       .  A
C232        C233   1.401       .  A
C232        F239   1.358       .  S
C233        H238   1.083       .  S
C233        C234   1.404       .  A
C234        C235   1.408       .  A
C235        F236   1.357       .  S
C240        H247   1.083       .  S
C240        C241   1.406       .  A
C240        C245   1.397       .  A
C241        C242   1.407       .  A
C242        C243   1.401       .  A
C242        F249   1.357       .  S
C243        H248   1.082       .  S
C243        C244   1.407       .  A
C244        C245   1.408       .  A
C245        F246   1.357       .  S
C250        H257   1.083       .  S
C250        C251   1.405       .  A
C250        C255   1.400       .  A
C251        C252   1.407       .  A
C252        C253   1.399       .  A
C252        F259   1.357       .  S
C253        H258   1.083       .  S
C253        C254   1.405       .  A
C254        C255   1.409       .  A
C255        F256   1.357       .  S
C260        H267   1.083       .  S
C260        C261   1.404       .  A
C260        C265   1.400       .  A
C261        C262   1.405       .  A
C262        C263   1.395       .  A
C262        F269   1.358       .  S
C263        H268   1.083       .  S
C263        C264   1.403       .  A
C264        C265   1.406       .  A
C265        F266   1.357       .  S
C270        H277   1.075       .  S
C270        C271   1.411       .  A
C270        C275   1.393       .  A
C271        C272   1.414       .  A
C272        C273   1.404       .  A
C272        F279   1.358       .  S
C273        H278   1.083       .  S
C273        C274   1.404       .  A
C274        C275   1.405       .  A
C275        F276   1.358       .  S
C280        H287   1.077       .  S
C280        C281   1.411       .  A
C280        C285   1.397       .  A
C281        C282   1.412       .  A
C282        C283   1.399       .  A
C282        F289   1.357       .  S
C283        H288   1.083       .  S
C283        C284   1.403       .  A
C284        C285   1.406       .  A
C285        F286   1.356       .  S
C290        H297   1.078       .  S
C290        C291   1.409       .  A
C290        C295   1.394       .  A
C291        C292   1.414       .  A
C292        C293   1.401       .  A
C292        F299   1.357       .  S
C293        H298   1.084       .  S
C293        C294   1.403       .  A
C294        C295   1.407       .  A
C295        F296   1.355       .  S
C300        H307   1.080       .  S
C300        C301   1.409       .  A
C300        C305   1.396       .  A
C301        C302   1.414       .  A
C302        C303   1.402       .  A
C302        F309   1.357       .  S
C303        H308   1.083       .  S
C303        C304   1.404       .  A
C304        C305   1.408       .  A
C305        F306   1.355       .  S
C310        H317   1.078       .  S
C310        C311   1.413       .  A
C310        C315   1.400       .  A
C311        C312   1.415       .  A
C312        C313   1.397       .  A
C312        F319   1.358       .  S
C313        H318   1.084       .  S
C313        C314   1.398       .  A
C314        C315   1.399       .  A
C315        F316   1.357       .  S
C320        H327   1.077       .  S
C320        C321   1.411       .  A
C320        C325   1.398       .  A
C321        C322   1.413       .  A
C322        C323   1.401       .  A
C322        F329   1.357       .  S
C323        H328   1.083       .  S
C323        C324   1.403       .  A
C324        C325   1.407       .  A
C325        F326   1.356       .  S
C330        H337   1.082       .  S
C330        C331   1.403       .  A
C330        C335   1.399       .  A
C331        C332   1.406       .  A
C332        C333   1.394       .  A
C332        F339   1.358       .  S
C333        H338   1.081       .  S
C333        C334   1.410       .  A
C334        C335   1.411       .  A
C335        F336   1.356       .  S
C340        H347   1.079       .  S
C340        C341   1.409       .  A
C340        C345   1.396       .  A
C341        C342   1.413       .  A
C342        C343   1.404       .  A
C342        F349   1.358       .  S
C343        H348   1.083       .  S
C343        C344   1.405       .  A
C344        C345   1.407       .  A
C345        F346   1.355       .  S
C350        N368   1.353       .  A
C350        C387   1.465       .  S
C350        C693   1.487       .  S
N351        N368   1.327       .  A
N351        N373   1.319       .  A
N351      Co1086   2.091       .  S
C352        N377   1.339       .  A
C352        C390   1.463       .  S
C352        H397   1.080       .  S
H353        C394   1.082       .  S
C354        N378   1.342       .  A
C354        C358   1.466       .  S
C354        H383   1.081       .  S
Co355       N363   2.078       .  S
Co355       N744   2.073   1_556  S
Co355      N1069   2.091       .  S
Co355     Cl2144   2.450   1_556  S
N356        C394   1.343       .  A
N356        N363   1.319       .  A
N356      Co1753   2.087       .  S
Co357      N1752   2.087   1_455  S
Co357       N360   2.073       .  S
Co357      N2471   2.083   1_455  S
Co357      N1062   2.084       .  S
Co357      Cl748   2.444   1_456  S
C358        N396   1.348       .  A
C358        C680   1.479       .  S
N359        N366   1.319       .  A
N359        N389   1.325       .  A
N359      Co1090   2.086       .  S
N360        N378   1.320       .  A
N360        N396   1.321       .  A
N361        C390   1.353       .  A
N361        N371   1.326       .  A
H362        C387   1.080       .  S
N363        N384   1.324       .  A
N364        N382   1.319       .  A
N364        N369   1.322       .  A
N364      Co1055   2.084   1_545  S
C365        N369   1.350       .  A
C365        C393   1.464       .  S
C365        C623   1.483       .  S
N366        C381   1.339       .  A
N366      Co2482   2.081   1_455  S
C367        N395   1.336       .  A
C367        C370   1.462       .  S
C367        H401   1.080       .  S
C370        N391   1.353       .  A
C370        C643   1.482       .  S
N371        N377   1.319       .  A
N371      Co1053   2.091       .  S
N372        C398   1.338       .  A
N372        N374   1.320       .  A
N372      Co1784   2.084   1_455  S
N373        C387   1.339       .  A
N374        N402   1.327       .  A
N374       Co392   2.098       .  S
H375        C398   1.080       .  S
H376        C393   1.081       .  S
N377      Co2451   2.083   1_545  S
N378       Co741   2.092   1_556  S
N379        N391   1.326       .  A
N379        N395   1.318       .  A
N379       Co388   2.088       .  S
C380        N384   1.348       .  A
C380        C394   1.459       .  S
C380        C663   1.468       .  S
C381        C400   1.463       .  S
C381        H385   1.080       .  S
N382        C393   1.344       .  A
C386        N402   1.355       .  A
C386        C398   1.463       .  S
C386        C653   1.487       .  S
Co388      N1049   2.091   1_545  S
Co388      N2460   2.081   1_545  S
Co388      N1768   2.084       .  S
Co388     Cl1795   2.450       .  S
N389        C400   1.352       .  A
C390        C673   1.484       .  S
Co392      N1057   2.086   1_545  S
Co392       N727   2.093   1_545  S
Co392      Cl399   2.457   1_455  S
N395       Co704   2.073       .  S
Cl399     Co2100   2.450       .  S
Cl399      Co706   2.444   1_645  S
Cl399     Co1784   2.450       .  S
C400        C633   1.482       .  S
C403        C404   1.541       .  S
C403        C409   1.549       .  S
C403        C407   1.538       .  S
C403        C620   1.536       .  S
C404        H411   1.085       .  S
C404        C405   1.370       .  D
C405        C406   1.540       .  S
C405        C603   1.488       .  S
C406        C410   1.534       .  S
C406        C408   1.536       .  S
C406        H412   1.109       .  S
C407        H413   1.086       .  S
C407        C408   1.365       .  D
C408        C613   1.479       .  S
C409        H414   1.080       .  S
C409        C410   1.364       .  D
C410        C590   1.490       .  S
C415        C416   1.542       .  S
C415        C421   1.548       .  S
C415        C419   1.536       .  S
C415        C683   1.529       .  S
C416        H423   1.085       .  S
C416        C417   1.357       .  D
C417        C418   1.530       .  S
C417        C573   1.469       .  S
C418        C422   1.537       .  S
C418        C420   1.536       .  S
C418        H424   1.110       .  S
C419        H425   1.086       .  S
C419        C420   1.366       .  D
C420        C610   1.478       .  S
C421        H426   1.084       .  S
C421        C422   1.370       .  D
C422        C580   1.489       .  S
C427        C428   1.548       .  S
C427        C433   1.545       .  S
C427        C431   1.538       .  S
C427        C630   1.532       .  S
C428        H435   1.085       .  S
C428        C429   1.373       .  D
C429        C430   1.539       .  S
C429        C563   1.500       .  S
C430        C434   1.531       .  S
C430        C432   1.535       .  S
C430        H436   1.105       .  S
C431        H437   1.086       .  S
C431        C432   1.364       .  D
C432        C553   1.484       .  S
C433        H438   1.082       .  S
C433        C434   1.360       .  D
C434        C570   1.473       .  S
C439        C440   1.548       .  S
C439        C445   1.542       .  S
C439        C443   1.539       .  S
C439        C650   1.535       .  S
C440        H447   1.083       .  S
C440        C441   1.366       .  D
C441        C442   1.535       .  S
C441        C593   1.491       .  S
C442        C446   1.530       .  S
C442        C444   1.540       .  S
C442        H448   1.108       .  S
C443        H449   1.086       .  S
C443        C444   1.370       .  D
C444        C550   1.489       .  S
C445        H450   1.086       .  S
C445        C446   1.361       .  D
C446        C540   1.467       .  S
C451        C452   1.549       .  S
C451        C457   1.543       .  S
C451        C455   1.542       .  S
C451        C670   1.536       .  S
C452        H459   1.081       .  S
C452        C453   1.366       .  D
C453        C454   1.535       .  S
C453        C520   1.486       .  S
C454        C458   1.536       .  S
C454        C456   1.533       .  S
C454        H460   1.109       .  S
C455        H461   1.086       .  S
C455        C456   1.368       .  D
C456        C530   1.485       .  S
C457        H462   1.086       .  S
C457        C458   1.366       .  D
C458        C600   1.486       .  S
C463        C464   1.548       .  S
C463        C469   1.541       .  S
C463        C467   1.541       .  S
C463        C640   1.533       .  S
C464        H471   1.083       .  S
C464        C465   1.359       .  D
C465        C466   1.530       .  S
C465        C543   1.469       .  S
C466        C470   1.536       .  S
C466        C468   1.539       .  S
C466        H472   1.107       .  S
C467        H473   1.086       .  S
C467        C468   1.370       .  D
C468        C510   1.489       .  S
C469        H474   1.086       .  S
C469        C470   1.366       .  D
C470        C523   1.487       .  S
C475        C476   1.543       .  S
C475        C481   1.551       .  S
C475        C479   1.536       .  S
C475        C690   1.535       .  S
C476        H483   1.086       .  S
C476        C477   1.366       .  D
C477        C478   1.539       .  S
C477        C500   1.486       .  S
C478        C482   1.542       .  S
C478        C480   1.538       .  S
C478        H484   1.106       .  S
C479        H485   1.086       .  S
C479        C480   1.364       .  D
C480        C513   1.487       .  S
C481        H486   1.080       .  S
C481        C482   1.370       .  D
C482        C560   1.504       .  S
C487        C488   1.542       .  S
C487        C493   1.535       .  S
C487        C491   1.546       .  S
C487        C660   1.531       .  S
C488        H495   1.086       .  S
C488        C489   1.366       .  D
C489        C490   1.539       .  S
C489        C583   1.488       .  S
C490        C494   1.540       .  S
C490        C492   1.540       .  S
C490        H496   1.110       .  S
C491        H497   1.082       .  S
C491        C492   1.368       .  D
C492        C533   1.486       .  S
C493        H498   1.087       .  S
C493        C494   1.362       .  D
C494        C503   1.483       .  S
C499        H506   1.077       .  S
C499        C500   1.404       .  A
C499        C504   1.398       .  A
C500        C501   1.405       .  A
C501        C502   1.401       .  A
C501        F508   1.357       .  S
C502        H507   1.083       .  S
C502        C503   1.406       .  A
C503        C504   1.403       .  A
C504        F505   1.358       .  S
C509        H516   1.083       .  S
C509        C510   1.407       .  A
C509        C514   1.403       .  A
C510        C511   1.408       .  A
C511        C512   1.394       .  A
C511        F518   1.357       .  S
C512        H517   1.083       .  S
C512        C513   1.402       .  A
C513        C514   1.409       .  A
C514        F515   1.357       .  S
C519        H526   1.083       .  S
C519        C520   1.403       .  A
C519        C524   1.395       .  A
C520        C521   1.408       .  A
C521        C522   1.398       .  A
C521        F528   1.357       .  S
C522        H527   1.083       .  S
C522        C523   1.406       .  A
C523        C524   1.408       .  A
C524        F525   1.355       .  S
C529        H536   1.083       .  S
C529        C530   1.403       .  A
C529        C534   1.401       .  A
C530        C531   1.408       .  A
C531        C532   1.398       .  A
C531        F538   1.358       .  S
C532        H537   1.084       .  S
C532        C533   1.402       .  A
C533        C534   1.409       .  A
C534        F535   1.357       .  S
C539        H546   1.084       .  S
C539        C540   1.400       .  A
C539        C544   1.396       .  A
C540        C541   1.403       .  A
C541        C542   1.398       .  A
C541        F548   1.358       .  S
C542        H547   1.083       .  S
C542        C543   1.401       .  A
C543        C544   1.403       .  A
C544        F545   1.357       .  S
C549        H556   1.083       .  S
C549        C550   1.407       .  A
C549        C554   1.402       .  A
C550        C551   1.408       .  A
C551        C552   1.393       .  A
C551        F558   1.356       .  S
C552        H557   1.084       .  S
C552        C553   1.402       .  A
C553        C554   1.407       .  A
C554        F555   1.357       .  S
C559        H566   1.074       .  S
C559        C560   1.404       .  A
C559        C564   1.392       .  A
C560        C561   1.414       .  A
C561        C562   1.403       .  A
C561        F568   1.356       .  S
C562        H567   1.082       .  S
C562        C563   1.408       .  A
C563        C564   1.409       .  A
C564        F565   1.352       .  S
C569        H576   1.080       .  S
C569        C570   1.402       .  A
C569        C574   1.396       .  A
C570        C571   1.403       .  A
C571        C572   1.397       .  A
C571        F578   1.357       .  S
C572        H577   1.084       .  S
C572        C573   1.403       .  A
C573        C574   1.401       .  A
C574        F575   1.358       .  S
C579        H586   1.082       .  S
C579        C580   1.405       .  A
C579        C584   1.400       .  A
C580        C581   1.408       .  A
C581        C582   1.401       .  A
C581        F588   1.358       .  S
C582        H587   1.083       .  S
C582        C583   1.404       .  A
C583        C584   1.408       .  A
C584        F585   1.357       .  S
C589        H596   1.083       .  S
C589        C590   1.406       .  A
C589        C594   1.397       .  A
C590        C591   1.407       .  A
C591        C592   1.401       .  A
C591        F598   1.357       .  S
C592        H597   1.082       .  S
C592        C593   1.407       .  A
C593        C594   1.408       .  A
C594        F595   1.357       .  S
C599        H606   1.083       .  S
C599        C600   1.405       .  A
C599        C604   1.400       .  A
C600        C601   1.407       .  A
C601        C602   1.399       .  A
C601        F608   1.357       .  S
C602        H607   1.083       .  S
C602        C603   1.405       .  A
C603        C604   1.409       .  A
C604        F605   1.357       .  S
C609        H616   1.083       .  S
C609        C610   1.404       .  A
C609        C614   1.400       .  A
C610        C611   1.405       .  A
C611        C612   1.395       .  A
C611        F618   1.358       .  S
C612        H617   1.083       .  S
C612        C613   1.403       .  A
C613        C614   1.406       .  A
C614        F615   1.357       .  S
C619        H626   1.075       .  S
C619        C620   1.411       .  A
C619        C624   1.393       .  A
C620        C621   1.414       .  A
C621        C622   1.404       .  A
C621        F628   1.358       .  S
C622        H627   1.083       .  S
C622        C623   1.404       .  A
C623        C624   1.405       .  A
C624        F625   1.358       .  S
C629        H636   1.077       .  S
C629        C630   1.411       .  A
C629        C634   1.397       .  A
C630        C631   1.412       .  A
C631        C632   1.399       .  A
C631        F638   1.357       .  S
C632        H637   1.083       .  S
C632        C633   1.403       .  A
C633        C634   1.406       .  A
C634        F635   1.356       .  S
C639        H646   1.078       .  S
C639        C640   1.409       .  A
C639        C644   1.394       .  A
C640        C641   1.414       .  A
C641        C642   1.401       .  A
C641        F648   1.357       .  S
C642        H647   1.084       .  S
C642        C643   1.403       .  A
C643        C644   1.407       .  A
C644        F645   1.355       .  S
C649        H656   1.080       .  S
C649        C650   1.408       .  A
C649        C654   1.396       .  A
C650        C651   1.414       .  A
C651        C652   1.403       .  A
C651        F658   1.357       .  S
C652        H657   1.083       .  S
C652        C653   1.404       .  A
C653        C654   1.408       .  A
C654        F655   1.355       .  S
C659        H666   1.078       .  S
C659        C660   1.413       .  A
C659        C664   1.400       .  A
C660        C661   1.415       .  A
C661        C662   1.397       .  A
C661        F668   1.358       .  S
C662        H667   1.084       .  S
C662        C663   1.398       .  A
C663        C664   1.399       .  A
C664        F665   1.357       .  S
C669        H676   1.077       .  S
C669        C670   1.411       .  A
C669        C674   1.398       .  A
C670        C671   1.413       .  A
C671        C672   1.401       .  A
C671        F678   1.357       .  S
C672        H677   1.083       .  S
C672        C673   1.403       .  A
C673        C674   1.407       .  A
C674        F675   1.356       .  S
C679        H686   1.082       .  S
C679        C680   1.403       .  A
C679        C684   1.399       .  A
C680        C681   1.406       .  A
C681        C682   1.394       .  A
C681        F688   1.358       .  S
C682        H687   1.081       .  S
C682        C683   1.410       .  A
C683        C684   1.411       .  A
C684        F685   1.356       .  S
C689        H696   1.079       .  S
C689        C690   1.409       .  A
C689        C694   1.396       .  A
C690        C691   1.413       .  A
C691        C692   1.404       .  A
C691        F698   1.358       .  S
C692        H697   1.083       .  S
C692        C693   1.405       .  A
C693        C694   1.407       .  A
C694        F695   1.355       .  S
C699        N717   1.353       .  A
C699        C736   1.465       .  S
C699       C1042   1.487       .  S
N700        N717   1.327       .  A
N700        N722   1.319       .  A
C701        N726   1.339       .  A
C701        C739   1.463       .  S
C701        H746   1.080       .  S
H702        C743   1.082       .  S
C703        N727   1.343       .  A
C703        C707   1.466       .  S
C703        H732   1.081       .  S
Co704      N1071   2.089   1_545  S
Co704       N712   2.078   1_545  S
Co704     Cl1795   2.450       .  S
N705        C743   1.343       .  A
N705        N712   1.319       .  A
N705      Co2102   2.087       .  S
Co706      N2101   2.087   1_455  S
Co706       N709   2.073       .  S
Co706      N1424   2.083   1_465  S
C707        N745   1.348       .  A
C707       C1029   1.479       .  S
N708        N715   1.319       .  A
N708        N738   1.325       .  A
N709        N727   1.320       .  A
N709        N745   1.321       .  A
N710        C739   1.353       .  A
N710        N720   1.326       .  A
H711        C736   1.080       .  S
N712        N733   1.324       .  A
N713        N731   1.319       .  A
N713        N718   1.322       .  A
C714        N718   1.350       .  A
C714        C742   1.464       .  S
C714        C972   1.483       .  S
N715        C730   1.339       .  A
N715      Co1435   2.081   1_465  S
C716        N744   1.337       .  A
C716        C719   1.462       .  S
C716        H750   1.080       .  S
C719        N740   1.353       .  A
C719        C992   1.482       .  S
N720        N726   1.319       .  A
N721        C747   1.338       .  A
N721        N723   1.320       .  A
N721      Co2133   2.084   1_455  S
N722        C736   1.339       .  A
N722      Co1053   2.089   1_564  S
N723        N751   1.327       .  A
N723       Co741   2.098       .  S
H724        C747   1.080       .  S
H725        C742   1.081       .  S
N726      Co1404   2.083       .  S
N728        N740   1.326       .  A
N728        N744   1.318       .  A
N728       Co737   2.088       .  S
C729        N733   1.348       .  A
C729        C743   1.459       .  S
C729       C1012   1.468       .  S
C730        C749   1.463       .  S
C730        H734   1.080       .  S
N731        C742   1.344       .  A
N731      Co1090   2.086       .  S
C735        N751   1.355       .  A
C735        C747   1.463       .  S
C735       C1002   1.487       .  S
Co737      N1413   2.081       .  S
Co737      N2117   2.084       .  S
Co737     Cl2144   2.450       .  S
N738        C749   1.351       .  A
C739       C1022   1.484       .  S
Co741      N1080   2.086   1_554  S
Co741      Cl748   2.457   1_455  S
Cl748     Co1751   2.450   1_554  S
Cl748     Co2133   2.450       .  S
C749        C982   1.482       .  S
C752        C753   1.541       .  S
C752        C758   1.549       .  S
C752        C756   1.538       .  S
C752        C969   1.536       .  S
C753        H760   1.085       .  S
C753        C754   1.370       .  D
C754        C755   1.540       .  S
C754        C952   1.488       .  S
C755        C759   1.534       .  S
C755        C757   1.536       .  S
C755        H761   1.109       .  S
C756        H762   1.086       .  S
C756        C757   1.365       .  D
C757        C962   1.479       .  S
C758        H763   1.080       .  S
C758        C759   1.364       .  D
C759        C939   1.490       .  S
C764        C765   1.542       .  S
C764        C770   1.548       .  S
C764        C768   1.536       .  S
C764       C1032   1.529       .  S
C765        H772   1.085       .  S
C765        C766   1.357       .  D
C766        C767   1.530       .  S
C766        C922   1.469       .  S
C767        C771   1.537       .  S
C767        C769   1.536       .  S
C767        H773   1.110       .  S
C768        H774   1.086       .  S
C768        C769   1.366       .  D
C769        C959   1.478       .  S
C770        H775   1.084       .  S
C770        C771   1.370       .  D
C771        C929   1.489       .  S
C776        C777   1.548       .  S
C776        C782   1.545       .  S
C776        C780   1.538       .  S
C776        C979   1.532       .  S
C777        H784   1.085       .  S
C777        C778   1.373       .  D
C778        C779   1.539       .  S
C778        C912   1.499       .  S
C779        C783   1.530       .  S
C779        C781   1.535       .  S
C779        H785   1.105       .  S
C780        H786   1.086       .  S
C780        C781   1.364       .  D
C781        C902   1.484       .  S
C782        H787   1.082       .  S
C782        C783   1.360       .  D
C783        C919   1.472       .  S
C788        C789   1.548       .  S
C788        C794   1.542       .  S
C788        C792   1.539       .  S
C788        C999   1.535       .  S
C789        H796   1.083       .  S
C789        C790   1.366       .  D
C790        C791   1.535       .  S
C790        C942   1.491       .  S
C791        C795   1.530       .  S
C791        C793   1.540       .  S
C791        H797   1.108       .  S
C792        H798   1.086       .  S
C792        C793   1.370       .  D
C793        C899   1.489       .  S
C794        H799   1.086       .  S
C794        C795   1.361       .  D
C795        C889   1.467       .  S
C800        C801   1.549       .  S
C800        C806   1.543       .  S
C800        C804   1.542       .  S
C800       C1019   1.536       .  S
C801        H808   1.081       .  S
C801        C802   1.366       .  D
C802        C803   1.535       .  S
C802        C869   1.486       .  S
C803        C807   1.536       .  S
C803        C805   1.533       .  S
C803        H809   1.109       .  S
C804        H810   1.086       .  S
C804        C805   1.368       .  D
C805        C879   1.485       .  S
C806        H811   1.086       .  S
C806        C807   1.366       .  D
C807        C949   1.486       .  S
C812        C813   1.548       .  S
C812        C818   1.541       .  S
C812        C816   1.541       .  S
C812        C989   1.533       .  S
C813        H820   1.083       .  S
C813        C814   1.359       .  D
C814        C815   1.530       .  S
C814        C892   1.469       .  S
C815        C819   1.536       .  S
C815        C817   1.539       .  S
C815        H821   1.107       .  S
C816        H822   1.086       .  S
C816        C817   1.370       .  D
C817        C859   1.489       .  S
C818        H823   1.086       .  S
C818        C819   1.366       .  D
C819        C872   1.487       .  S
C824        C825   1.543       .  S
C824        C830   1.551       .  S
C824        C828   1.536       .  S
C824       C1039   1.535       .  S
C825        H832   1.086       .  S
C825        C826   1.366       .  D
C826        C827   1.539       .  S
C826        C849   1.486       .  S
C827        C831   1.542       .  S
C827        C829   1.538       .  S
C827        H833   1.106       .  S
C828        H834   1.086       .  S
C828        C829   1.365       .  D
C829        C862   1.487       .  S
C830        H835   1.080       .  S
C830        C831   1.370       .  D
C831        C909   1.503       .  S
C836        C837   1.542       .  S
C836        C842   1.535       .  S
C836        C840   1.546       .  S
C836       C1009   1.531       .  S
C837        H844   1.086       .  S
C837        C838   1.366       .  D
C838        C839   1.539       .  S
C838        C932   1.488       .  S
C839        C843   1.540       .  S
C839        C841   1.540       .  S
C839        H845   1.110       .  S
C840        H846   1.082       .  S
C840        C841   1.368       .  D
C841        C882   1.486       .  S
C842        H847   1.087       .  S
C842        C843   1.362       .  D
C843        C852   1.483       .  S
C848        H855   1.077       .  S
C848        C849   1.404       .  A
C848        C853   1.398       .  A
C849        C850   1.405       .  A
C850        C851   1.401       .  A
C850        F857   1.357       .  S
C851        H856   1.083       .  S
C851        C852   1.406       .  A
C852        C853   1.403       .  A
C853        F854   1.358       .  S
C858        H865   1.083       .  S
C858        C859   1.407       .  A
C858        C863   1.403       .  A
C859        C860   1.408       .  A
C860        C861   1.394       .  A
C860        F867   1.357       .  S
C861        H866   1.083       .  S
C861        C862   1.402       .  A
C862        C863   1.409       .  A
C863        F864   1.357       .  S
C868        H875   1.083       .  S
C868        C869   1.403       .  A
C868        C873   1.395       .  A
C869        C870   1.408       .  A
C870        C871   1.398       .  A
C870        F877   1.357       .  S
C871        H876   1.083       .  S
C871        C872   1.406       .  A
C872        C873   1.408       .  A
C873        F874   1.355       .  S
C878        H885   1.083       .  S
C878        C879   1.403       .  A
C878        C883   1.401       .  A
C879        C880   1.408       .  A
C880        C881   1.398       .  A
C880        F887   1.358       .  S
C881        H886   1.084       .  S
C881        C882   1.402       .  A
C882        C883   1.409       .  A
C883        F884   1.357       .  S
C888        H895   1.084       .  S
C888        C889   1.400       .  A
C888        C893   1.396       .  A
C889        C890   1.403       .  A
C890        C891   1.398       .  A
C890        F897   1.358       .  S
C891        H896   1.083       .  S
C891        C892   1.401       .  A
C892        C893   1.403       .  A
C893        F894   1.357       .  S
C898        H905   1.083       .  S
C898        C899   1.407       .  A
C898        C903   1.402       .  A
C899        C900   1.408       .  A
C900        C901   1.393       .  A
C900        F907   1.356       .  S
C901        H906   1.084       .  S
C901        C902   1.402       .  A
C902        C903   1.407       .  A
C903        F904   1.357       .  S
C908        H915   1.074       .  S
C908        C909   1.404       .  A
C908        C913   1.392       .  A
C909        C910   1.414       .  A
C910        C911   1.403       .  A
C910        F917   1.356       .  S
C911        H916   1.082       .  S
C911        C912   1.408       .  A
C912        C913   1.409       .  A
C913        F914   1.352       .  S
C918        H925   1.081       .  S
C918        C919   1.401       .  A
C918        C923   1.396       .  A
C919        C920   1.403       .  A
C920        C921   1.397       .  A
C920        F927   1.357       .  S
C921        H926   1.084       .  S
C921        C922   1.403       .  A
C922        C923   1.401       .  A
C923        F924   1.358       .  S
C928        H935   1.082       .  S
C928        C929   1.405       .  A
C928        C933   1.400       .  A
C929        C930   1.408       .  A
C930        C931   1.401       .  A
C930        F937   1.358       .  S
C931        H936   1.083       .  S
C931        C932   1.404       .  A
C932        C933   1.408       .  A
C933        F934   1.357       .  S
C938        H945   1.083       .  S
C938        C939   1.406       .  A
C938        C943   1.397       .  A
C939        C940   1.407       .  A
C940        C941   1.401       .  A
C940        F947   1.357       .  S
C941        H946   1.082       .  S
C941        C942   1.407       .  A
C942        C943   1.408       .  A
C943        F944   1.357       .  S
C948        H955   1.083       .  S
C948        C949   1.405       .  A
C948        C953   1.400       .  A
C949        C950   1.407       .  A
C950        C951   1.399       .  A
C950        F957   1.357       .  S
C951        H956   1.083       .  S
C951        C952   1.405       .  A
C952        C953   1.409       .  A
C953        F954   1.357       .  S
C958        H965   1.083       .  S
C958        C959   1.404       .  A
C958        C963   1.400       .  A
C959        C960   1.405       .  A
C960        C961   1.395       .  A
C960        F967   1.358       .  S
C961        H966   1.083       .  S
C961        C962   1.403       .  A
C962        C963   1.406       .  A
C963        F964   1.357       .  S
C968        H975   1.075       .  S
C968        C969   1.411       .  A
C968        C973   1.393       .  A
C969        C970   1.414       .  A
C970        C971   1.404       .  A
C970        F977   1.358       .  S
C971        H976   1.083       .  S
C971        C972   1.404       .  A
C972        C973   1.405       .  A
C973        F974   1.358       .  S
C978        H985   1.077       .  S
C978        C979   1.411       .  A
C978        C983   1.397       .  A
C979        C980   1.412       .  A
C980        C981   1.399       .  A
C980        F987   1.357       .  S
C981        H986   1.083       .  S
C981        C982   1.403       .  A
C982        C983   1.406       .  A
C983        F984   1.356       .  S
C988        H995   1.078       .  S
C988        C989   1.409       .  A
C988        C993   1.394       .  A
C989        C990   1.414       .  A
C990        C991   1.401       .  A
C990        F997   1.357       .  S
C991        H996   1.084       .  S
C991        C992   1.403       .  A
C992        C993   1.407       .  A
C993        F994   1.355       .  S
C998       H1005   1.080       .  S
C998        C999   1.409       .  A
C998       C1003   1.396       .  A
C999       C1000   1.414       .  A
C1000      C1001   1.402       .  A
C1000      F1007   1.357       .  S
C1001      H1006   1.083       .  S
C1001      C1002   1.404       .  A
C1002      C1003   1.408       .  A
C1003      F1004   1.355       .  S
C1008      H1015   1.078       .  S
C1008      C1009   1.413       .  A
C1008      C1013   1.400       .  A
C1009      C1010   1.415       .  A
C1010      C1011   1.397       .  A
C1010      F1017   1.358       .  S
C1011      H1016   1.084       .  S
C1011      C1012   1.398       .  A
C1012      C1013   1.399       .  A
C1013      F1014   1.357       .  S
C1018      H1025   1.077       .  S
C1018      C1019   1.411       .  A
C1018      C1023   1.398       .  A
C1019      C1020   1.413       .  A
C1020      C1021   1.401       .  A
C1020      F1027   1.357       .  S
C1021      H1026   1.083       .  S
C1021      C1022   1.403       .  A
C1022      C1023   1.407       .  A
C1023      F1024   1.356       .  S
C1028      H1035   1.082       .  S
C1028      C1029   1.403       .  A
C1028      C1033   1.399       .  A
C1029      C1030   1.406       .  A
C1030      C1031   1.394       .  A
C1030      F1037   1.358       .  S
C1031      H1036   1.081       .  S
C1031      C1032   1.410       .  A
C1032      C1033   1.411       .  A
C1033      F1034   1.356       .  S
C1038      H1045   1.079       .  S
C1038      C1039   1.409       .  A
C1038      C1043   1.396       .  A
C1039      C1040   1.413       .  A
C1040      C1041   1.404       .  A
C1040      F1047   1.358       .  S
C1041      H1046   1.083       .  S
C1041      C1042   1.405       .  A
C1042      C1043   1.407       .  A
C1043      F1044   1.355       .  S
C1048      N1066   1.353       .  A
C1048      C1085   1.465       .  S
C1048      C1391   1.487       .  S
N1049      N1066   1.327       .  A
N1049      N1071   1.319       .  A
C1050      N1075   1.339       .  A
C1050      C1088   1.463       .  S
C1050      H1095   1.080       .  S
H1051      C1092   1.082       .  S
C1052      N1076   1.342       .  A
C1052      C1056   1.466       .  S
C1052      H1081   1.081       .  S
Co1053     N1061   2.078   1_545  S
Co1053    Cl1446   2.450   1_556  S
N1054      C1092   1.343       .  A
N1054      N1061   1.319       .  A
N1054     Co2451   2.087       .  S
Co1055     N2450   2.087   1_455  S
Co1055     N1058   2.073       .  S
Co1055     N1773   2.083   1_465  S
C1056      N1094   1.348       .  A
C1056      C1378   1.479       .  S
N1057      N1064   1.319       .  A
N1057      N1087   1.325       .  A
N1058      N1076   1.320       .  A
N1058      N1094   1.321       .  A
N1059      C1088   1.353       .  A
N1059      N1069   1.326       .  A
H1060      C1085   1.080       .  S
N1061      N1082   1.324       .  A
N1062      N1080   1.319       .  A
N1062      N1067   1.322       .  A
C1063      N1067   1.350       .  A
C1063      C1091   1.464       .  S
C1063      C1321   1.483       .  S
N1064      C1079   1.339       .  A
N1064     Co1784   2.081   1_465  S
C1065      N1093   1.336       .  A
C1065      C1068   1.462       .  S
C1065      H1099   1.080       .  S
C1068      N1089   1.353       .  A
C1068      C1341   1.482       .  S
N1069      N1075   1.319       .  A
N1070      C1096   1.338       .  A
N1070      N1072   1.320       .  A
N1070     Co2482   2.084   1_455  S
N1071      C1085   1.339       .  A
N1072      N1100   1.327       .  A
N1072     Co1090   2.098       .  S
H1073      C1096   1.080       .  S
H1074      C1091   1.081       .  S
N1075     Co1753   2.083       .  S
N1077      N1089   1.326       .  A
N1077      N1093   1.318       .  A
N1077     Co1086   2.088       .  S
C1078      N1082   1.348       .  A
C1078      C1092   1.459       .  S
C1078      C1361   1.468       .  S
C1079      C1098   1.463       .  S
C1079      H1083   1.080       .  S
N1080      C1091   1.344       .  A
C1084      N1100   1.355       .  A
C1084      C1096   1.463       .  S
C1084      C1351   1.487       .  S
Co1086     N1762   2.081       .  S
Co1086     N2466   2.084       .  S
Co1086    Cl2493   2.450       .  S
N1087      C1098   1.352       .  A
C1088      C1371   1.484       .  S
Co1090    Cl1097   2.457   1_455  S
Cl1097    Co1402   2.450       .  S
Cl1097    Co2482   2.450       .  S
C1098      C1331   1.482       .  S
C1101      C1102   1.541       .  S
C1101      C1107   1.549       .  S
C1101      C1105   1.538       .  S
C1101      C1318   1.536       .  S
C1102      H1109   1.085       .  S
C1102      C1103   1.370       .  D
C1103      C1104   1.540       .  S
C1103      C1301   1.488       .  S
C1104      C1108   1.534       .  S
C1104      C1106   1.536       .  S
C1104      H1110   1.109       .  S
C1105      H1111   1.086       .  S
C1105      C1106   1.365       .  D
C1106      C1311   1.479       .  S
C1107      H1112   1.080       .  S
C1107      C1108   1.364       .  D
C1108      C1288   1.490       .  S
C1113      C1114   1.542       .  S
C1113      C1119   1.548       .  S
C1113      C1117   1.536       .  S
C1113      C1381   1.529       .  S
C1114      H1121   1.085       .  S
C1114      C1115   1.357       .  D
C1115      C1116   1.530       .  S
C1115      C1271   1.470       .  S
C1116      C1120   1.537       .  S
C1116      C1118   1.536       .  S
C1116      H1122   1.110       .  S
C1117      H1123   1.086       .  S
C1117      C1118   1.366       .  D
C1118      C1308   1.478       .  S
C1119      H1124   1.084       .  S
C1119      C1120   1.370       .  D
C1120      C1278   1.489       .  S
C1125      C1126   1.548       .  S
C1125      C1131   1.545       .  S
C1125      C1129   1.538       .  S
C1125      C1328   1.532       .  S
C1126      H1133   1.085       .  S
C1126      C1127   1.373       .  D
C1127      C1128   1.539       .  S
C1127      C1261   1.500       .  S
C1128      C1132   1.531       .  S
C1128      C1130   1.535       .  S
C1128      H1134   1.105       .  S
C1129      H1135   1.086       .  S
C1129      C1130   1.364       .  D
C1130      C1251   1.484       .  S
C1131      H1136   1.082       .  S
C1131      C1132   1.360       .  D
C1132      C1268   1.473       .  S
C1137      C1138   1.548       .  S
C1137      C1143   1.542       .  S
C1137      C1141   1.539       .  S
C1137      C1348   1.535       .  S
C1138      H1145   1.083       .  S
C1138      C1139   1.366       .  D
C1139      C1140   1.535       .  S
C1139      C1291   1.491       .  S
C1140      C1144   1.530       .  S
C1140      C1142   1.539       .  S
C1140      H1146   1.108       .  S
C1141      H1147   1.086       .  S
C1141      C1142   1.370       .  D
C1142      C1248   1.489       .  S
C1143      H1148   1.086       .  S
C1143      C1144   1.361       .  D
C1144      C1238   1.467       .  S
C1149      C1150   1.549       .  S
C1149      C1155   1.543       .  S
C1149      C1153   1.542       .  S
C1149      C1368   1.536       .  S
C1150      H1157   1.081       .  S
C1150      C1151   1.366       .  D
C1151      C1152   1.535       .  S
C1151      C1218   1.486       .  S
C1152      C1156   1.536       .  S
C1152      C1154   1.533       .  S
C1152      H1158   1.109       .  S
C1153      H1159   1.086       .  S
C1153      C1154   1.368       .  D
C1154      C1228   1.485       .  S
C1155      H1160   1.086       .  S
C1155      C1156   1.366       .  D
C1156      C1298   1.486       .  S
C1161      C1162   1.548       .  S
C1161      C1167   1.541       .  S
C1161      C1165   1.541       .  S
C1161      C1338   1.533       .  S
C1162      H1169   1.083       .  S
C1162      C1163   1.359       .  D
C1163      C1164   1.530       .  S
C1163      C1241   1.469       .  S
C1164      C1168   1.536       .  S
C1164      C1166   1.539       .  S
C1164      H1170   1.107       .  S
C1165      H1171   1.086       .  S
C1165      C1166   1.370       .  D
C1166      C1208   1.489       .  S
C1167      H1172   1.086       .  S
C1167      C1168   1.366       .  D
C1168      C1221   1.487       .  S
C1173      C1174   1.543       .  S
C1173      C1179   1.551       .  S
C1173      C1177   1.536       .  S
C1173      C1388   1.535       .  S
C1174      H1181   1.086       .  S
C1174      C1175   1.366       .  D
C1175      C1176   1.539       .  S
C1175      C1198   1.486       .  S
C1176      C1180   1.542       .  S
C1176      C1178   1.538       .  S
C1176      H1182   1.106       .  S
C1177      H1183   1.086       .  S
C1177      C1178   1.364       .  D
C1178      C1211   1.487       .  S
C1179      H1184   1.080       .  S
C1179      C1180   1.370       .  D
C1180      C1258   1.504       .  S
C1185      C1186   1.542       .  S
C1185      C1191   1.535       .  S
C1185      C1189   1.546       .  S
C1185      C1358   1.531       .  S
C1186      H1193   1.086       .  S
C1186      C1187   1.366       .  D
C1187      C1188   1.539       .  S
C1187      C1281   1.488       .  S
C1188      C1192   1.540       .  S
C1188      C1190   1.540       .  S
C1188      H1194   1.110       .  S
C1189      H1195   1.082       .  S
C1189      C1190   1.368       .  D
C1190      C1231   1.486       .  S
C1191      H1196   1.087       .  S
C1191      C1192   1.362       .  D
C1192      C1201   1.483       .  S
C1197      H1204   1.077       .  S
C1197      C1198   1.404       .  A
C1197      C1202   1.398       .  A
C1198      C1199   1.405       .  A
C1199      C1200   1.401       .  A
C1199      F1206   1.357       .  S
C1200      H1205   1.083       .  S
C1200      C1201   1.406       .  A
C1201      C1202   1.403       .  A
C1202      F1203   1.358       .  S
C1207      H1214   1.083       .  S
C1207      C1208   1.407       .  A
C1207      C1212   1.403       .  A
C1208      C1209   1.408       .  A
C1209      C1210   1.394       .  A
C1209      F1216   1.357       .  S
C1210      H1215   1.083       .  S
C1210      C1211   1.402       .  A
C1211      C1212   1.409       .  A
C1212      F1213   1.357       .  S
C1217      H1224   1.083       .  S
C1217      C1218   1.403       .  A
C1217      C1222   1.395       .  A
C1218      C1219   1.408       .  A
C1219      C1220   1.398       .  A
C1219      F1226   1.357       .  S
C1220      H1225   1.083       .  S
C1220      C1221   1.406       .  A
C1221      C1222   1.408       .  A
C1222      F1223   1.355       .  S
C1227      H1234   1.083       .  S
C1227      C1228   1.403       .  A
C1227      C1232   1.401       .  A
C1228      C1229   1.408       .  A
C1229      C1230   1.398       .  A
C1229      F1236   1.358       .  S
C1230      H1235   1.084       .  S
C1230      C1231   1.402       .  A
C1231      C1232   1.409       .  A
C1232      F1233   1.357       .  S
C1237      H1244   1.084       .  S
C1237      C1238   1.400       .  A
C1237      C1242   1.396       .  A
C1238      C1239   1.403       .  A
C1239      C1240   1.398       .  A
C1239      F1246   1.358       .  S
C1240      H1245   1.083       .  S
C1240      C1241   1.401       .  A
C1241      C1242   1.403       .  A
C1242      F1243   1.357       .  S
C1247      H1254   1.083       .  S
C1247      C1248   1.407       .  A
C1247      C1252   1.402       .  A
C1248      C1249   1.408       .  A
C1249      C1250   1.393       .  A
C1249      F1256   1.356       .  S
C1250      H1255   1.084       .  S
C1250      C1251   1.402       .  A
C1251      C1252   1.407       .  A
C1252      F1253   1.357       .  S
C1257      H1264   1.074       .  S
C1257      C1258   1.404       .  A
C1257      C1262   1.392       .  A
C1258      C1259   1.414       .  A
C1259      C1260   1.403       .  A
C1259      F1266   1.356       .  S
C1260      H1265   1.082       .  S
C1260      C1261   1.408       .  A
C1261      C1262   1.409       .  A
C1262      F1263   1.352       .  S
C1267      H1274   1.080       .  S
C1267      C1268   1.402       .  A
C1267      C1272   1.396       .  A
C1268      C1269   1.403       .  A
C1269      C1270   1.397       .  A
C1269      F1276   1.357       .  S
C1270      H1275   1.084       .  S
C1270      C1271   1.403       .  A
C1271      C1272   1.401       .  A
C1272      F1273   1.358       .  S
C1277      H1284   1.082       .  S
C1277      C1278   1.405       .  A
C1277      C1282   1.400       .  A
C1278      C1279   1.408       .  A
C1279      C1280   1.401       .  A
C1279      F1286   1.358       .  S
C1280      H1285   1.083       .  S
C1280      C1281   1.404       .  A
C1281      C1282   1.408       .  A
C1282      F1283   1.357       .  S
C1287      H1294   1.083       .  S
C1287      C1288   1.406       .  A
C1287      C1292   1.397       .  A
C1288      C1289   1.407       .  A
C1289      C1290   1.401       .  A
C1289      F1296   1.357       .  S
C1290      H1295   1.082       .  S
C1290      C1291   1.407       .  A
C1291      C1292   1.408       .  A
C1292      F1293   1.357       .  S
C1297      H1304   1.083       .  S
C1297      C1298   1.405       .  A
C1297      C1302   1.400       .  A
C1298      C1299   1.407       .  A
C1299      C1300   1.399       .  A
C1299      F1306   1.357       .  S
C1300      H1305   1.083       .  S
C1300      C1301   1.405       .  A
C1301      C1302   1.409       .  A
C1302      F1303   1.357       .  S
C1307      H1314   1.083       .  S
C1307      C1308   1.404       .  A
C1307      C1312   1.400       .  A
C1308      C1309   1.405       .  A
C1309      C1310   1.395       .  A
C1309      F1316   1.358       .  S
C1310      H1315   1.083       .  S
C1310      C1311   1.403       .  A
C1311      C1312   1.406       .  A
C1312      F1313   1.357       .  S
C1317      H1324   1.075       .  S
C1317      C1318   1.411       .  A
C1317      C1322   1.393       .  A
C1318      C1319   1.414       .  A
C1319      C1320   1.404       .  A
C1319      F1326   1.358       .  S
C1320      H1325   1.083       .  S
C1320      C1321   1.404       .  A
C1321      C1322   1.405       .  A
C1322      F1323   1.358       .  S
C1327      H1334   1.077       .  S
C1327      C1328   1.411       .  A
C1327      C1332   1.397       .  A
C1328      C1329   1.412       .  A
C1329      C1330   1.399       .  A
C1329      F1336   1.357       .  S
C1330      H1335   1.083       .  S
C1330      C1331   1.403       .  A
C1331      C1332   1.406       .  A
C1332      F1333   1.356       .  S
C1337      H1344   1.078       .  S
C1337      C1338   1.409       .  A
C1337      C1342   1.394       .  A
C1338      C1339   1.414       .  A
C1339      C1340   1.401       .  A
C1339      F1346   1.357       .  S
C1340      H1345   1.084       .  S
C1340      C1341   1.403       .  A
C1341      C1342   1.407       .  A
C1342      F1343   1.355       .  S
C1347      H1354   1.080       .  S
C1347      C1348   1.408       .  A
C1347      C1352   1.396       .  A
C1348      C1349   1.414       .  A
C1349      C1350   1.403       .  A
C1349      F1356   1.357       .  S
C1350      H1355   1.083       .  S
C1350      C1351   1.404       .  A
C1351      C1352   1.408       .  A
C1352      F1353   1.355       .  S
C1357      H1364   1.078       .  S
C1357      C1358   1.413       .  A
C1357      C1362   1.400       .  A
C1358      C1359   1.415       .  A
C1359      C1360   1.397       .  A
C1359      F1366   1.358       .  S
C1360      H1365   1.084       .  S
C1360      C1361   1.398       .  A
C1361      C1362   1.399       .  A
C1362      F1363   1.357       .  S
C1367      H1374   1.077       .  S
C1367      C1368   1.411       .  A
C1367      C1372   1.398       .  A
C1368      C1369   1.413       .  A
C1369      C1370   1.401       .  A
C1369      F1376   1.357       .  S
C1370      H1375   1.083       .  S
C1370      C1371   1.403       .  A
C1371      C1372   1.407       .  A
C1372      F1373   1.356       .  S
C1377      H1384   1.082       .  S
C1377      C1378   1.403       .  A
C1377      C1382   1.399       .  A
C1378      C1379   1.406       .  A
C1379      C1380   1.394       .  A
C1379      F1386   1.358       .  S
C1380      H1385   1.081       .  S
C1380      C1381   1.410       .  A
C1381      C1382   1.411       .  A
C1382      F1383   1.356       .  S
C1387      H1394   1.079       .  S
C1387      C1388   1.409       .  A
C1387      C1392   1.396       .  A
C1388      C1389   1.413       .  A
C1389      C1390   1.404       .  A
C1389      F1396   1.358       .  S
C1390      H1395   1.083       .  S
C1390      C1391   1.405       .  A
C1391      C1392   1.407       .  A
C1392      F1393   1.355       .  S
C1397      N1415   1.353       .  A
C1397      C1434   1.465       .  S
C1397      C1740   1.487       .  S
N1398      N1415   1.327       .  A
N1398      N1420   1.319       .  A
N1398     Co2133   2.091       .  S
C1399      N1424   1.339       .  A
C1399      C1437   1.463       .  S
C1399      H1444   1.080       .  S
H1400      C1441   1.082       .  S
C1401      N1425   1.343       .  A
C1401      C1405   1.466       .  S
C1401      H1430   1.081       .  S
Co1402     N1769   2.089       .  S
Co1402     N1410   2.078       .  S
Co1402     N2489   2.073       .  S
Co1402     N2116   2.091       .  S
N1403      C1441   1.343       .  A
N1403      N1410   1.319       .  A
Co1404     N1407   2.073       .  S
Co1404     N2109   2.084       .  S
Co1404    Cl2493   2.444       .  S
C1405      N1443   1.348       .  A
C1405      C1727   1.479       .  S
N1406      N1413   1.319       .  A
N1406      N1436   1.325       .  A
N1406     Co2137   2.085       .  S
N1407      N1425   1.320       .  A
N1407      N1443   1.321       .  A
N1408      C1437   1.353       .  A
N1408      N1418   1.326       .  A
H1409      C1434   1.080       .  S
N1410      N1431   1.324       .  A
N1411      N1429   1.319       .  A
N1411      N1416   1.322       .  A
N1411     Co2102   2.084   1_545  S
C1412      N1416   1.350       .  A
C1412      C1440   1.464       .  S
C1412      C1670   1.483       .  S
N1413      C1428   1.339       .  A
C1414      N1442   1.337       .  A
C1414      C1417   1.462       .  S
C1414      H1448   1.080       .  S
C1417      N1438   1.353       .  A
C1417      C1690   1.482       .  S
N1418      N1424   1.319       .  A
N1418     Co2100   2.091       .  S
N1419      C1445   1.338       .  A
N1419      N1421   1.320       .  A
N1420      C1434   1.339       .  A
N1420     Co1751   2.089   1_554  S
N1421      N1449   1.327       .  A
N1421     Co1439   2.098       .  S
H1422      C1445   1.080       .  S
H1423      C1440   1.081       .  S
N1425     Co2486   2.093       .  S
N1426      N1438   1.326       .  A
N1426      N1442   1.318       .  A
N1426     Co1435   2.088       .  S
C1427      N1431   1.348       .  A
C1427      C1441   1.459       .  S
C1427      C1710   1.468       .  S
C1428      C1447   1.463       .  S
C1428      H1432   1.080       .  S
N1429      C1440   1.344       .  A
N1429     Co1788   2.086       .  S
C1433      N1449   1.355       .  A
C1433      C1445   1.463       .  S
C1433      C1700   1.487       .  S
Co1435     N2096   2.091   1_545  S
N1436      C1447   1.351       .  A
C1437      C1720   1.484       .  S
Co1439     N2104   2.085   1_545  S
Co1439     N2472   2.092   1_544  S
Co1439     N1778   2.086   1_554  S
Co1439    Cl1446   2.457       .  S
N1442     Co2449   2.073   1_554  S
Cl1446    Co2451   2.444   1_544  S
C1447      C1680   1.482       .  S
C1450      C1451   1.541       .  S
C1450      C1456   1.549       .  S
C1450      C1454   1.538       .  S
C1450      C1667   1.536       .  S
C1451      H1458   1.085       .  S
C1451      C1452   1.370       .  D
C1452      C1453   1.540       .  S
C1452      C1650   1.488       .  S
C1453      C1457   1.534       .  S
C1453      C1455   1.536       .  S
C1453      H1459   1.109       .  S
C1454      H1460   1.086       .  S
C1454      C1455   1.365       .  D
C1455      C1660   1.479       .  S
C1456      H1461   1.080       .  S
C1456      C1457   1.364       .  D
C1457      C1637   1.490       .  S
C1462      C1463   1.542       .  S
C1462      C1468   1.548       .  S
C1462      C1466   1.536       .  S
C1462      C1730   1.529       .  S
C1463      H1470   1.085       .  S
C1463      C1464   1.357       .  D
C1464      C1465   1.530       .  S
C1464      C1620   1.469       .  S
C1465      C1469   1.537       .  S
C1465      C1467   1.536       .  S
C1465      H1471   1.110       .  S
C1466      H1472   1.086       .  S
C1466      C1467   1.366       .  D
C1467      C1657   1.478       .  S
C1468      H1473   1.084       .  S
C1468      C1469   1.370       .  D
C1469      C1627   1.489       .  S
C1474      C1475   1.548       .  S
C1474      C1480   1.545       .  S
C1474      C1478   1.538       .  S
C1474      C1677   1.532       .  S
C1475      H1482   1.085       .  S
C1475      C1476   1.373       .  D
C1476      C1477   1.539       .  S
C1476      C1610   1.499       .  S
C1477      C1481   1.531       .  S
C1477      C1479   1.535       .  S
C1477      H1483   1.105       .  S
C1478      H1484   1.086       .  S
C1478      C1479   1.364       .  D
C1479      C1600   1.484       .  S
C1480      H1485   1.082       .  S
C1480      C1481   1.360       .  D
C1481      C1617   1.472       .  S
C1486      C1487   1.548       .  S
C1486      C1492   1.542       .  S
C1486      C1490   1.539       .  S
C1486      C1697   1.535       .  S
C1487      H1494   1.083       .  S
C1487      C1488   1.366       .  D
C1488      C1489   1.535       .  S
C1488      C1640   1.491       .  S
C1489      C1493   1.530       .  S
C1489      C1491   1.540       .  S
C1489      H1495   1.108       .  S
C1490      H1496   1.086       .  S
C1490      C1491   1.370       .  D
C1491      C1597   1.489       .  S
C1492      H1497   1.086       .  S
C1492      C1493   1.361       .  D
C1493      C1587   1.467       .  S
C1498      C1499   1.549       .  S
C1498      C1504   1.543       .  S
C1498      C1502   1.542       .  S
C1498      C1717   1.536       .  S
C1499      H1506   1.081       .  S
C1499      C1500   1.366       .  D
C1500      C1501   1.535       .  S
C1500      C1567   1.486       .  S
C1501      C1505   1.536       .  S
C1501      C1503   1.533       .  S
C1501      H1507   1.109       .  S
C1502      H1508   1.086       .  S
C1502      C1503   1.368       .  D
C1503      C1577   1.485       .  S
C1504      H1509   1.086       .  S
C1504      C1505   1.366       .  D
C1505      C1647   1.486       .  S
C1510      C1511   1.548       .  S
C1510      C1516   1.541       .  S
C1510      C1514   1.541       .  S
C1510      C1687   1.533       .  S
C1511      H1518   1.083       .  S
C1511      C1512   1.359       .  D
C1512      C1513   1.530       .  S
C1512      C1590   1.469       .  S
C1513      C1517   1.536       .  S
C1513      C1515   1.539       .  S
C1513      H1519   1.107       .  S
C1514      H1520   1.086       .  S
C1514      C1515   1.370       .  D
C1515      C1557   1.489       .  S
C1516      H1521   1.086       .  S
C1516      C1517   1.366       .  D
C1517      C1570   1.487       .  S
C1522      C1523   1.543       .  S
C1522      C1528   1.551       .  S
C1522      C1526   1.536       .  S
C1522      C1737   1.535       .  S
C1523      H1530   1.086       .  S
C1523      C1524   1.366       .  D
C1524      C1525   1.539       .  S
C1524      C1547   1.486       .  S
C1525      C1529   1.542       .  S
C1525      C1527   1.538       .  S
C1525      H1531   1.106       .  S
C1526      H1532   1.086       .  S
C1526      C1527   1.365       .  D
C1527      C1560   1.487       .  S
C1528      H1533   1.080       .  S
C1528      C1529   1.370       .  D
C1529      C1607   1.503       .  S
C1534      C1535   1.542       .  S
C1534      C1540   1.535       .  S
C1534      C1538   1.546       .  S
C1534      C1707   1.531       .  S
C1535      H1542   1.086       .  S
C1535      C1536   1.366       .  D
C1536      C1537   1.539       .  S
C1536      C1630   1.488       .  S
C1537      C1541   1.540       .  S
C1537      C1539   1.540       .  S
C1537      H1543   1.110       .  S
C1538      H1544   1.082       .  S
C1538      C1539   1.368       .  D
C1539      C1580   1.486       .  S
C1540      H1545   1.087       .  S
C1540      C1541   1.362       .  D
C1541      C1550   1.483       .  S
C1546      H1553   1.077       .  S
C1546      C1547   1.404       .  A
C1546      C1551   1.398       .  A
C1547      C1548   1.405       .  A
C1548      C1549   1.401       .  A
C1548      F1555   1.357       .  S
C1549      H1554   1.083       .  S
C1549      C1550   1.406       .  A
C1550      C1551   1.403       .  A
C1551      F1552   1.358       .  S
C1556      H1563   1.083       .  S
C1556      C1557   1.407       .  A
C1556      C1561   1.403       .  A
C1557      C1558   1.408       .  A
C1558      C1559   1.394       .  A
C1558      F1565   1.357       .  S
C1559      H1564   1.083       .  S
C1559      C1560   1.402       .  A
C1560      C1561   1.409       .  A
C1561      F1562   1.357       .  S
C1566      H1573   1.083       .  S
C1566      C1567   1.403       .  A
C1566      C1571   1.395       .  A
C1567      C1568   1.408       .  A
C1568      C1569   1.398       .  A
C1568      F1575   1.357       .  S
C1569      H1574   1.083       .  S
C1569      C1570   1.406       .  A
C1570      C1571   1.408       .  A
C1571      F1572   1.355       .  S
C1576      H1583   1.083       .  S
C1576      C1577   1.403       .  A
C1576      C1581   1.401       .  A
C1577      C1578   1.408       .  A
C1578      C1579   1.398       .  A
C1578      F1585   1.358       .  S
C1579      H1584   1.084       .  S
C1579      C1580   1.402       .  A
C1580      C1581   1.409       .  A
C1581      F1582   1.357       .  S
C1586      H1593   1.084       .  S
C1586      C1587   1.400       .  A
C1586      C1591   1.396       .  A
C1587      C1588   1.403       .  A
C1588      C1589   1.398       .  A
C1588      F1595   1.358       .  S
C1589      H1594   1.083       .  S
C1589      C1590   1.401       .  A
C1590      C1591   1.403       .  A
C1591      F1592   1.357       .  S
C1596      H1603   1.083       .  S
C1596      C1597   1.407       .  A
C1596      C1601   1.402       .  A
C1597      C1598   1.408       .  A
C1598      C1599   1.393       .  A
C1598      F1605   1.356       .  S
C1599      H1604   1.084       .  S
C1599      C1600   1.402       .  A
C1600      C1601   1.407       .  A
C1601      F1602   1.357       .  S
C1606      H1613   1.074       .  S
C1606      C1607   1.404       .  A
C1606      C1611   1.392       .  A
C1607      C1608   1.414       .  A
C1608      C1609   1.403       .  A
C1608      F1615   1.356       .  S
C1609      H1614   1.082       .  S
C1609      C1610   1.408       .  A
C1610      C1611   1.409       .  A
C1611      F1612   1.352       .  S
C1616      H1623   1.081       .  S
C1616      C1617   1.401       .  A
C1616      C1621   1.396       .  A
C1617      C1618   1.403       .  A
C1618      C1619   1.397       .  A
C1618      F1625   1.357       .  S
C1619      H1624   1.084       .  S
C1619      C1620   1.403       .  A
C1620      C1621   1.401       .  A
C1621      F1622   1.358       .  S
C1626      H1633   1.082       .  S
C1626      C1627   1.405       .  A
C1626      C1631   1.400       .  A
C1627      C1628   1.408       .  A
C1628      C1629   1.401       .  A
C1628      F1635   1.358       .  S
C1629      H1634   1.083       .  S
C1629      C1630   1.404       .  A
C1630      C1631   1.408       .  A
C1631      F1632   1.357       .  S
C1636      H1643   1.083       .  S
C1636      C1637   1.406       .  A
C1636      C1641   1.397       .  A
C1637      C1638   1.407       .  A
C1638      C1639   1.401       .  A
C1638      F1645   1.357       .  S
C1639      H1644   1.082       .  S
C1639      C1640   1.407       .  A
C1640      C1641   1.408       .  A
C1641      F1642   1.357       .  S
C1646      H1653   1.083       .  S
C1646      C1647   1.405       .  A
C1646      C1651   1.400       .  A
C1647      C1648   1.407       .  A
C1648      C1649   1.399       .  A
C1648      F1655   1.357       .  S
C1649      H1654   1.083       .  S
C1649      C1650   1.405       .  A
C1650      C1651   1.409       .  A
C1651      F1652   1.357       .  S
C1656      H1663   1.083       .  S
C1656      C1657   1.404       .  A
C1656      C1661   1.400       .  A
C1657      C1658   1.405       .  A
C1658      C1659   1.395       .  A
C1658      F1665   1.358       .  S
C1659      H1664   1.083       .  S
C1659      C1660   1.403       .  A
C1660      C1661   1.406       .  A
C1661      F1662   1.357       .  S
C1666      H1673   1.075       .  S
C1666      C1667   1.411       .  A
C1666      C1671   1.393       .  A
C1667      C1668   1.414       .  A
C1668      C1669   1.404       .  A
C1668      F1675   1.358       .  S
C1669      H1674   1.083       .  S
C1669      C1670   1.404       .  A
C1670      C1671   1.405       .  A
C1671      F1672   1.358       .  S
C1676      H1683   1.077       .  S
C1676      C1677   1.411       .  A
C1676      C1681   1.397       .  A
C1677      C1678   1.412       .  A
C1678      C1679   1.399       .  A
C1678      F1685   1.357       .  S
C1679      H1684   1.083       .  S
C1679      C1680   1.403       .  A
C1680      C1681   1.406       .  A
C1681      F1682   1.356       .  S
C1686      H1693   1.078       .  S
C1686      C1687   1.409       .  A
C1686      C1691   1.394       .  A
C1687      C1688   1.414       .  A
C1688      C1689   1.401       .  A
C1688      F1695   1.357       .  S
C1689      H1694   1.084       .  S
C1689      C1690   1.403       .  A
C1690      C1691   1.407       .  A
C1691      F1692   1.355       .  S
C1696      H1703   1.080       .  S
C1696      C1697   1.409       .  A
C1696      C1701   1.396       .  A
C1697      C1698   1.414       .  A
C1698      C1699   1.402       .  A
C1698      F1705   1.357       .  S
C1699      H1704   1.083       .  S
C1699      C1700   1.404       .  A
C1700      C1701   1.408       .  A
C1701      F1702   1.355       .  S
C1706      H1713   1.078       .  S
C1706      C1707   1.413       .  A
C1706      C1711   1.400       .  A
C1707      C1708   1.415       .  A
C1708      C1709   1.397       .  A
C1708      F1715   1.358       .  S
C1709      H1714   1.084       .  S
C1709      C1710   1.398       .  A
C1710      C1711   1.399       .  A
C1711      F1712   1.357       .  S
C1716      H1723   1.077       .  S
C1716      C1717   1.411       .  A
C1716      C1721   1.398       .  A
C1717      C1718   1.413       .  A
C1718      C1719   1.401       .  A
C1718      F1725   1.357       .  S
C1719      H1724   1.083       .  S
C1719      C1720   1.403       .  A
C1720      C1721   1.407       .  A
C1721      F1722   1.356       .  S
C1726      H1733   1.082       .  S
C1726      C1727   1.403       .  A
C1726      C1731   1.399       .  A
C1727      C1728   1.406       .  A
C1728      C1729   1.394       .  A
C1728      F1735   1.358       .  S
C1729      H1734   1.081       .  S
C1729      C1730   1.410       .  A
C1730      C1731   1.411       .  A
C1731      F1732   1.356       .  S
C1736      H1743   1.079       .  S
C1736      C1737   1.409       .  A
C1736      C1741   1.396       .  A
C1737      C1738   1.413       .  A
C1738      C1739   1.404       .  A
C1738      F1745   1.358       .  S
C1739      H1744   1.083       .  S
C1739      C1740   1.405       .  A
C1740      C1741   1.407       .  A
C1741      F1742   1.355       .  S
C1746      N1764   1.353       .  A
C1746      C1783   1.465       .  S
C1746      C2089   1.487       .  S
N1747      N1764   1.327       .  A
N1747      N1769   1.319       .  A
N1747     Co2482   2.091       .  S
C1748      N1773   1.339       .  A
C1748      C1786   1.463       .  S
C1748      H1793   1.080       .  S
H1749      C1790   1.082       .  S
C1750      N1774   1.342       .  A
C1750      C1754   1.466       .  S
C1750      H1779   1.081       .  S
Co1751     N1759   2.078       .  S
Co1751     N2140   2.073   1_556  S
Co1751     N2465   2.091       .  S
N1752      C1790   1.343       .  A
N1752      N1759   1.319       .  A
Co1753     N1756   2.073       .  S
Co1753     N2458   2.084       .  S
Co1753    Cl2144   2.444   1_556  S
C1754      N1792   1.348       .  A
C1754      C2076   1.479       .  S
N1755      N1762   1.319       .  A
N1755      N1785   1.325       .  A
N1755     Co2486   2.086       .  S
N1756      N1774   1.320       .  A
N1756      N1792   1.321       .  A
N1757      C1786   1.353       .  A
N1757      N1767   1.326       .  A
H1758      C1783   1.080       .  S
N1759      N1780   1.324       .  A
N1760      N1778   1.319       .  A
N1760      N1765   1.322       .  A
N1760     Co2451   2.084   1_545  S
C1761      N1765   1.350       .  A
C1761      C1789   1.464       .  S
C1761      C2019   1.483       .  S
N1762      C1777   1.339       .  A
C1763      N1791   1.336       .  A
C1763      C1766   1.462       .  S
C1763      H1797   1.080       .  S
C1766      N1787   1.353       .  A
C1766      C2039   1.482       .  S
N1767      N1773   1.319       .  A
N1767     Co2449   2.091       .  S
N1768      C1794   1.338       .  A
N1768      N1770   1.320       .  A
N1769      C1783   1.339       .  A
N1770      N1798   1.327       .  A
N1770     Co1788   2.098       .  S
H1771      C1794   1.080       .  S
H1772      C1789   1.081       .  S
N1774     Co2137   2.092   1_556  S
N1775      N1787   1.326       .  A
N1775      N1791   1.318       .  A
N1775     Co1784   2.088       .  S
C1776      N1780   1.348       .  A
C1776      C1790   1.459       .  S
C1776      C2059   1.468       .  S
C1777      C1796   1.464       .  S
C1777      H1781   1.080       .  S
N1778      C1789   1.344       .  A
C1782      N1798   1.355       .  A
C1782      C1794   1.463       .  S
C1782      C2049   1.487       .  S
Co1784     N2445   2.091   1_545  S
N1785      C1796   1.352       .  A
C1786      C2069   1.484       .  S
Co1788     N2453   2.086   1_545  S
Co1788     N2123   2.093   1_545  S
Co1788    Cl1795   2.457       .  S
N1791     Co2100   2.073       .  S
Cl1795    Co2102   2.444   1_545  S
C1796      C2029   1.482       .  S
C1799      C1800   1.541       .  S
C1799      C1805   1.549       .  S
C1799      C1803   1.538       .  S
C1799      C2016   1.536       .  S
C1800      H1807   1.085       .  S
C1800      C1801   1.370       .  D
C1801      C1802   1.540       .  S
C1801      C1999   1.488       .  S
C1802      C1806   1.534       .  S
C1802      C1804   1.536       .  S
C1802      H1808   1.109       .  S
C1803      H1809   1.086       .  S
C1803      C1804   1.365       .  D
C1804      C2009   1.479       .  S
C1805      H1810   1.080       .  S
C1805      C1806   1.364       .  D
C1806      C1986   1.490       .  S
C1811      C1812   1.542       .  S
C1811      C1817   1.548       .  S
C1811      C1815   1.536       .  S
C1811      C2079   1.529       .  S
C1812      H1819   1.085       .  S
C1812      C1813   1.357       .  D
C1813      C1814   1.530       .  S
C1813      C1969   1.470       .  S
C1814      C1818   1.537       .  S
C1814      C1816   1.536       .  S
C1814      H1820   1.110       .  S
C1815      H1821   1.086       .  S
C1815      C1816   1.366       .  D
C1816      C2006   1.478       .  S
C1817      H1822   1.084       .  S
C1817      C1818   1.370       .  D
C1818      C1976   1.489       .  S
C1823      C1824   1.548       .  S
C1823      C1829   1.545       .  S
C1823      C1827   1.538       .  S
C1823      C2026   1.532       .  S
C1824      H1831   1.085       .  S
C1824      C1825   1.373       .  D
C1825      C1826   1.539       .  S
C1825      C1959   1.500       .  S
C1826      C1830   1.531       .  S
C1826      C1828   1.535       .  S
C1826      H1832   1.105       .  S
C1827      H1833   1.086       .  S
C1827      C1828   1.364       .  D
C1828      C1949   1.484       .  S
C1829      H1834   1.082       .  S
C1829      C1830   1.360       .  D
C1830      C1966   1.473       .  S
C1835      C1836   1.548       .  S
C1835      C1841   1.542       .  S
C1835      C1839   1.539       .  S
C1835      C2046   1.535       .  S
C1836      H1843   1.083       .  S
C1836      C1837   1.366       .  D
C1837      C1838   1.535       .  S
C1837      C1989   1.491       .  S
C1838      C1842   1.530       .  S
C1838      C1840   1.539       .  S
C1838      H1844   1.108       .  S
C1839      H1845   1.086       .  S
C1839      C1840   1.370       .  D
C1840      C1946   1.489       .  S
C1841      H1846   1.086       .  S
C1841      C1842   1.361       .  D
C1842      C1936   1.467       .  S
C1847      C1848   1.549       .  S
C1847      C1853   1.543       .  S
C1847      C1851   1.542       .  S
C1847      C2066   1.536       .  S
C1848      H1855   1.081       .  S
C1848      C1849   1.366       .  D
C1849      C1850   1.535       .  S
C1849      C1916   1.486       .  S
C1850      C1854   1.536       .  S
C1850      C1852   1.533       .  S
C1850      H1856   1.109       .  S
C1851      H1857   1.086       .  S
C1851      C1852   1.368       .  D
C1852      C1926   1.485       .  S
C1853      H1858   1.086       .  S
C1853      C1854   1.366       .  D
C1854      C1996   1.486       .  S
C1859      C1860   1.548       .  S
C1859      C1865   1.541       .  S
C1859      C1863   1.541       .  S
C1859      C2036   1.533       .  S
C1860      H1867   1.083       .  S
C1860      C1861   1.359       .  D
C1861      C1862   1.530       .  S
C1861      C1939   1.469       .  S
C1862      C1866   1.536       .  S
C1862      C1864   1.539       .  S
C1862      H1868   1.107       .  S
C1863      H1869   1.086       .  S
C1863      C1864   1.370       .  D
C1864      C1906   1.489       .  S
C1865      H1870   1.086       .  S
C1865      C1866   1.366       .  D
C1866      C1919   1.487       .  S
C1871      C1872   1.543       .  S
C1871      C1877   1.551       .  S
C1871      C1875   1.536       .  S
C1871      C2086   1.535       .  S
C1872      H1879   1.086       .  S
C1872      C1873   1.366       .  D
C1873      C1874   1.539       .  S
C1873      C1896   1.486       .  S
C1874      C1878   1.542       .  S
C1874      C1876   1.538       .  S
C1874      H1880   1.106       .  S
C1875      H1881   1.086       .  S
C1875      C1876   1.364       .  D
C1876      C1909   1.487       .  S
C1877      H1882   1.080       .  S
C1877      C1878   1.370       .  D
C1878      C1956   1.504       .  S
C1883      C1884   1.542       .  S
C1883      C1889   1.535       .  S
C1883      C1887   1.546       .  S
C1883      C2056   1.531       .  S
C1884      H1891   1.086       .  S
C1884      C1885   1.366       .  D
C1885      C1886   1.539       .  S
C1885      C1979   1.488       .  S
C1886      C1890   1.540       .  S
C1886      C1888   1.540       .  S
C1886      H1892   1.110       .  S
C1887      H1893   1.082       .  S
C1887      C1888   1.368       .  D
C1888      C1929   1.486       .  S
C1889      H1894   1.087       .  S
C1889      C1890   1.362       .  D
C1890      C1899   1.483       .  S
C1895      H1902   1.077       .  S
C1895      C1896   1.404       .  A
C1895      C1900   1.398       .  A
C1896      C1897   1.405       .  A
C1897      C1898   1.401       .  A
C1897      F1904   1.357       .  S
C1898      H1903   1.083       .  S
C1898      C1899   1.406       .  A
C1899      C1900   1.403       .  A
C1900      F1901   1.358       .  S
C1905      H1912   1.083       .  S
C1905      C1906   1.407       .  A
C1905      C1910   1.403       .  A
C1906      C1907   1.408       .  A
C1907      C1908   1.394       .  A
C1907      F1914   1.357       .  S
C1908      H1913   1.083       .  S
C1908      C1909   1.402       .  A
C1909      C1910   1.409       .  A
C1910      F1911   1.357       .  S
C1915      H1922   1.083       .  S
C1915      C1916   1.403       .  A
C1915      C1920   1.395       .  A
C1916      C1917   1.408       .  A
C1917      C1918   1.398       .  A
C1917      F1924   1.357       .  S
C1918      H1923   1.083       .  S
C1918      C1919   1.406       .  A
C1919      C1920   1.408       .  A
C1920      F1921   1.355       .  S
C1925      H1932   1.083       .  S
C1925      C1926   1.403       .  A
C1925      C1930   1.401       .  A
C1926      C1927   1.408       .  A
C1927      C1928   1.398       .  A
C1927      F1934   1.358       .  S
C1928      H1933   1.084       .  S
C1928      C1929   1.402       .  A
C1929      C1930   1.409       .  A
C1930      F1931   1.357       .  S
C1935      H1942   1.084       .  S
C1935      C1936   1.400       .  A
C1935      C1940   1.396       .  A
C1936      C1937   1.403       .  A
C1937      C1938   1.398       .  A
C1937      F1944   1.358       .  S
C1938      H1943   1.083       .  S
C1938      C1939   1.401       .  A
C1939      C1940   1.403       .  A
C1940      F1941   1.357       .  S
C1945      H1952   1.083       .  S
C1945      C1946   1.407       .  A
C1945      C1950   1.402       .  A
C1946      C1947   1.408       .  A
C1947      C1948   1.393       .  A
C1947      F1954   1.356       .  S
C1948      H1953   1.084       .  S
C1948      C1949   1.402       .  A
C1949      C1950   1.407       .  A
C1950      F1951   1.357       .  S
C1955      H1962   1.074       .  S
C1955      C1956   1.404       .  A
C1955      C1960   1.392       .  A
C1956      C1957   1.414       .  A
C1957      C1958   1.403       .  A
C1957      F1964   1.356       .  S
C1958      H1963   1.082       .  S
C1958      C1959   1.408       .  A
C1959      C1960   1.409       .  A
C1960      F1961   1.352       .  S
C1965      H1972   1.080       .  S
C1965      C1966   1.402       .  A
C1965      C1970   1.396       .  A
C1966      C1967   1.403       .  A
C1967      C1968   1.397       .  A
C1967      F1974   1.357       .  S
C1968      H1973   1.084       .  S
C1968      C1969   1.403       .  A
C1969      C1970   1.401       .  A
C1970      F1971   1.358       .  S
C1975      H1982   1.082       .  S
C1975      C1976   1.405       .  A
C1975      C1980   1.400       .  A
C1976      C1977   1.408       .  A
C1977      C1978   1.401       .  A
C1977      F1984   1.358       .  S
C1978      H1983   1.083       .  S
C1978      C1979   1.404       .  A
C1979      C1980   1.408       .  A
C1980      F1981   1.357       .  S
C1985      H1992   1.083       .  S
C1985      C1986   1.406       .  A
C1985      C1990   1.397       .  A
C1986      C1987   1.407       .  A
C1987      C1988   1.401       .  A
C1987      F1994   1.357       .  S
C1988      H1993   1.082       .  S
C1988      C1989   1.407       .  A
C1989      C1990   1.408       .  A
C1990      F1991   1.357       .  S
C1995      H2002   1.083       .  S
C1995      C1996   1.405       .  A
C1995      C2000   1.400       .  A
C1996      C1997   1.407       .  A
C1997      C1998   1.399       .  A
C1997      F2004   1.357       .  S
C1998      H2003   1.083       .  S
C1998      C1999   1.405       .  A
C1999      C2000   1.409       .  A
C2000      F2001   1.357       .  S
C2005      H2012   1.083       .  S
C2005      C2006   1.404       .  A
C2005      C2010   1.400       .  A
C2006      C2007   1.405       .  A
C2007      C2008   1.395       .  A
C2007      F2014   1.358       .  S
C2008      H2013   1.083       .  S
C2008      C2009   1.403       .  A
C2009      C2010   1.406       .  A
C2010      F2011   1.357       .  S
C2015      H2022   1.075       .  S
C2015      C2016   1.411       .  A
C2015      C2020   1.393       .  A
C2016      C2017   1.414       .  A
C2017      C2018   1.404       .  A
C2017      F2024   1.358       .  S
C2018      H2023   1.083       .  S
C2018      C2019   1.404       .  A
C2019      C2020   1.405       .  A
C2020      F2021   1.358       .  S
C2025      H2032   1.077       .  S
C2025      C2026   1.411       .  A
C2025      C2030   1.397       .  A
C2026      C2027   1.412       .  A
C2027      C2028   1.399       .  A
C2027      F2034   1.357       .  S
C2028      H2033   1.083       .  S
C2028      C2029   1.403       .  A
C2029      C2030   1.406       .  A
C2030      F2031   1.356       .  S
C2035      H2042   1.078       .  S
C2035      C2036   1.409       .  A
C2035      C2040   1.394       .  A
C2036      C2037   1.414       .  A
C2037      C2038   1.401       .  A
C2037      F2044   1.357       .  S
C2038      H2043   1.084       .  S
C2038      C2039   1.403       .  A
C2039      C2040   1.407       .  A
C2040      F2041   1.355       .  S
C2045      H2052   1.080       .  S
C2045      C2046   1.409       .  A
C2045      C2050   1.396       .  A
C2046      C2047   1.414       .  A
C2047      C2048   1.403       .  A
C2047      F2054   1.357       .  S
C2048      H2053   1.083       .  S
C2048      C2049   1.404       .  A
C2049      C2050   1.408       .  A
C2050      F2051   1.355       .  S
C2055      H2062   1.078       .  S
C2055      C2056   1.413       .  A
C2055      C2060   1.400       .  A
C2056      C2057   1.415       .  A
C2057      C2058   1.397       .  A
C2057      F2064   1.358       .  S
C2058      H2063   1.084       .  S
C2058      C2059   1.398       .  A
C2059      C2060   1.399       .  A
C2060      F2061   1.357       .  S
C2065      H2072   1.077       .  S
C2065      C2066   1.411       .  A
C2065      C2070   1.398       .  A
C2066      C2067   1.413       .  A
C2067      C2068   1.401       .  A
C2067      F2074   1.357       .  S
C2068      H2073   1.083       .  S
C2068      C2069   1.403       .  A
C2069      C2070   1.407       .  A
C2070      F2071   1.356       .  S
C2075      H2082   1.082       .  S
C2075      C2076   1.403       .  A
C2075      C2080   1.399       .  A
C2076      C2077   1.406       .  A
C2077      C2078   1.394       .  A
C2077      F2084   1.358       .  S
C2078      H2083   1.081       .  S
C2078      C2079   1.410       .  A
C2079      C2080   1.411       .  A
C2080      F2081   1.356       .  S
C2085      H2092   1.079       .  S
C2085      C2086   1.409       .  A
C2085      C2090   1.396       .  A
C2086      C2087   1.413       .  A
C2087      C2088   1.404       .  A
C2087      F2094   1.358       .  S
C2088      H2093   1.083       .  S
C2088      C2089   1.405       .  A
C2089      C2090   1.407       .  A
C2090      F2091   1.355       .  S
C2095      N2113   1.353       .  A
C2095      C2132   1.465       .  S
C2095      C2438   1.487       .  S
N2096      N2113   1.327       .  A
N2096      N2118   1.319       .  A
C2097      N2122   1.339       .  A
C2097      C2135   1.463       .  S
C2097      H2142   1.080       .  S
H2098      C2139   1.082       .  S
C2099      N2123   1.343       .  A
C2099      C2103   1.466       .  S
C2099      H2128   1.081       .  S
Co2100     N2467   2.089   1_545  S
Co2100     N2108   2.078   1_545  S
N2101      C2139   1.343       .  A
N2101      N2108   1.319       .  A
Co2102     N2105   2.073       .  S
C2103      N2141   1.348       .  A
C2103      C2425   1.479       .  S
N2104      N2111   1.319       .  A
N2104      N2134   1.325       .  A
N2105      N2123   1.320       .  A
N2105      N2141   1.321       .  A
N2106      C2135   1.353       .  A
N2106      N2116   1.326       .  A
H2107      C2132   1.080       .  S
N2108      N2129   1.324       .  A
N2109      N2127   1.319       .  A
N2109      N2114   1.322       .  A
C2110      N2114   1.350       .  A
C2110      C2138   1.464       .  S
C2110      C2368   1.483       .  S
N2111      C2126   1.339       .  A
C2112      N2140   1.337       .  A
C2112      C2115   1.462       .  S
C2112      H2146   1.080       .  S
C2115      N2136   1.353       .  A
C2115      C2388   1.482       .  S
N2116      N2122   1.319       .  A
N2117      C2143   1.338       .  A
N2117      N2119   1.320       .  A
N2118      C2132   1.339       .  A
N2118     Co2449   2.089   1_564  S
N2119      N2147   1.327       .  A
N2119     Co2137   2.098       .  S
H2120      C2143   1.080       .  S
H2121      C2138   1.081       .  S
N2124      N2136   1.326       .  A
N2124      N2140   1.318       .  A
N2124     Co2133   2.088       .  S
C2125      N2129   1.348       .  A
C2125      C2139   1.459       .  S
C2125      C2408   1.468       .  S
C2126      C2145   1.463       .  S
C2126      H2130   1.080       .  S
N2127      C2138   1.344       .  A
N2127     Co2486   2.086       .  S
C2131      N2147   1.355       .  A
C2131      C2143   1.463       .  S
C2131      C2398   1.487       .  S
N2134      C2145   1.351       .  A
C2135      C2418   1.484       .  S
Co2137     N2476   2.086   1_554  S
Co2137    Cl2144   2.457       .  S
C2145      C2378   1.482       .  S
C2148      C2149   1.541       .  S
C2148      C2154   1.549       .  S
C2148      C2152   1.538       .  S
C2148      C2365   1.536       .  S
C2149      H2156   1.085       .  S
C2149      C2150   1.370       .  D
C2150      C2151   1.540       .  S
C2150      C2348   1.488       .  S
C2151      C2155   1.534       .  S
C2151      C2153   1.536       .  S
C2151      H2157   1.109       .  S
C2152      H2158   1.086       .  S
C2152      C2153   1.365       .  D
C2153      C2358   1.479       .  S
C2154      H2159   1.080       .  S
C2154      C2155   1.364       .  D
C2155      C2335   1.490       .  S
C2160      C2161   1.542       .  S
C2160      C2166   1.548       .  S
C2160      C2164   1.536       .  S
C2160      C2428   1.529       .  S
C2161      H2168   1.085       .  S
C2161      C2162   1.357       .  D
C2162      C2163   1.530       .  S
C2162      C2318   1.469       .  S
C2163      C2167   1.538       .  S
C2163      C2165   1.536       .  S
C2163      H2169   1.110       .  S
C2164      H2170   1.086       .  S
C2164      C2165   1.366       .  D
C2165      C2355   1.478       .  S
C2166      H2171   1.084       .  S
C2166      C2167   1.370       .  D
C2167      C2325   1.489       .  S
C2172      C2173   1.548       .  S
C2172      C2178   1.545       .  S
C2172      C2176   1.538       .  S
C2172      C2375   1.532       .  S
C2173      H2180   1.085       .  S
C2173      C2174   1.373       .  D
C2174      C2175   1.539       .  S
C2174      C2308   1.499       .  S
C2175      C2179   1.530       .  S
C2175      C2177   1.535       .  S
C2175      H2181   1.105       .  S
C2176      H2182   1.086       .  S
C2176      C2177   1.364       .  D
C2177      C2298   1.484       .  S
C2178      H2183   1.082       .  S
C2178      C2179   1.360       .  D
C2179      C2315   1.472       .  S
C2184      C2185   1.548       .  S
C2184      C2190   1.542       .  S
C2184      C2188   1.539       .  S
C2184      C2395   1.535       .  S
C2185      H2192   1.083       .  S
C2185      C2186   1.366       .  D
C2186      C2187   1.535       .  S
C2186      C2338   1.491       .  S
C2187      C2191   1.530       .  S
C2187      C2189   1.540       .  S
C2187      H2193   1.108       .  S
C2188      H2194   1.086       .  S
C2188      C2189   1.370       .  D
C2189      C2295   1.489       .  S
C2190      H2195   1.086       .  S
C2190      C2191   1.361       .  D
C2191      C2285   1.467       .  S
C2196      C2197   1.549       .  S
C2196      C2202   1.543       .  S
C2196      C2200   1.542       .  S
C2196      C2415   1.536       .  S
C2197      H2204   1.081       .  S
C2197      C2198   1.366       .  D
C2198      C2199   1.535       .  S
C2198      C2265   1.486       .  S
C2199      C2203   1.536       .  S
C2199      C2201   1.533       .  S
C2199      H2205   1.109       .  S
C2200      H2206   1.086       .  S
C2200      C2201   1.368       .  D
C2201      C2275   1.485       .  S
C2202      H2207   1.086       .  S
C2202      C2203   1.366       .  D
C2203      C2345   1.486       .  S
C2208      C2209   1.548       .  S
C2208      C2214   1.541       .  S
C2208      C2212   1.541       .  S
C2208      C2385   1.533       .  S
C2209      H2216   1.083       .  S
C2209      C2210   1.359       .  D
C2210      C2211   1.530       .  S
C2210      C2288   1.469       .  S
C2211      C2215   1.536       .  S
C2211      C2213   1.539       .  S
C2211      H2217   1.107       .  S
C2212      H2218   1.086       .  S
C2212      C2213   1.370       .  D
C2213      C2255   1.489       .  S
C2214      H2219   1.086       .  S
C2214      C2215   1.366       .  D
C2215      C2268   1.487       .  S
C2220      C2221   1.543       .  S
C2220      C2226   1.551       .  S
C2220      C2224   1.536       .  S
C2220      C2435   1.535       .  S
C2221      H2228   1.086       .  S
C2221      C2222   1.366       .  D
C2222      C2223   1.539       .  S
C2222      C2245   1.486       .  S
C2223      C2227   1.542       .  S
C2223      C2225   1.538       .  S
C2223      H2229   1.106       .  S
C2224      H2230   1.086       .  S
C2224      C2225   1.365       .  D
C2225      C2258   1.487       .  S
C2226      H2231   1.080       .  S
C2226      C2227   1.370       .  D
C2227      C2305   1.503       .  S
C2232      C2233   1.542       .  S
C2232      C2238   1.535       .  S
C2232      C2236   1.546       .  S
C2232      C2405   1.531       .  S
C2233      H2240   1.086       .  S
C2233      C2234   1.366       .  D
C2234      C2235   1.539       .  S
C2234      C2328   1.488       .  S
C2235      C2239   1.540       .  S
C2235      C2237   1.540       .  S
C2235      H2241   1.110       .  S
C2236      H2242   1.082       .  S
C2236      C2237   1.368       .  D
C2237      C2278   1.486       .  S
C2238      H2243   1.087       .  S
C2238      C2239   1.362       .  D
C2239      C2248   1.483       .  S
C2244      H2251   1.077       .  S
C2244      C2245   1.404       .  A
C2244      C2249   1.398       .  A
C2245      C2246   1.405       .  A
C2246      C2247   1.401       .  A
C2246      F2253   1.357       .  S
C2247      H2252   1.083       .  S
C2247      C2248   1.406       .  A
C2248      C2249   1.403       .  A
C2249      F2250   1.358       .  S
C2254      H2261   1.083       .  S
C2254      C2255   1.407       .  A
C2254      C2259   1.403       .  A
C2255      C2256   1.408       .  A
C2256      C2257   1.394       .  A
C2256      F2263   1.357       .  S
C2257      H2262   1.083       .  S
C2257      C2258   1.402       .  A
C2258      C2259   1.409       .  A
C2259      F2260   1.357       .  S
C2264      H2271   1.083       .  S
C2264      C2265   1.403       .  A
C2264      C2269   1.395       .  A
C2265      C2266   1.408       .  A
C2266      C2267   1.398       .  A
C2266      F2273   1.357       .  S
C2267      H2272   1.083       .  S
C2267      C2268   1.406       .  A
C2268      C2269   1.408       .  A
C2269      F2270   1.355       .  S
C2274      H2281   1.083       .  S
C2274      C2275   1.403       .  A
C2274      C2279   1.401       .  A
C2275      C2276   1.408       .  A
C2276      C2277   1.398       .  A
C2276      F2283   1.358       .  S
C2277      H2282   1.084       .  S
C2277      C2278   1.402       .  A
C2278      C2279   1.409       .  A
C2279      F2280   1.357       .  S
C2284      H2291   1.084       .  S
C2284      C2285   1.400       .  A
C2284      C2289   1.396       .  A
C2285      C2286   1.403       .  A
C2286      C2287   1.398       .  A
C2286      F2293   1.358       .  S
C2287      H2292   1.083       .  S
C2287      C2288   1.401       .  A
C2288      C2289   1.403       .  A
C2289      F2290   1.357       .  S
C2294      H2301   1.083       .  S
C2294      C2295   1.407       .  A
C2294      C2299   1.402       .  A
C2295      C2296   1.408       .  A
C2296      C2297   1.393       .  A
C2296      F2303   1.356       .  S
C2297      H2302   1.084       .  S
C2297      C2298   1.402       .  A
C2298      C2299   1.407       .  A
C2299      F2300   1.357       .  S
C2304      H2311   1.074       .  S
C2304      C2305   1.404       .  A
C2304      C2309   1.392       .  A
C2305      C2306   1.414       .  A
C2306      C2307   1.403       .  A
C2306      F2313   1.356       .  S
C2307      H2312   1.082       .  S
C2307      C2308   1.408       .  A
C2308      C2309   1.409       .  A
C2309      F2310   1.352       .  S
C2314      H2321   1.081       .  S
C2314      C2315   1.401       .  A
C2314      C2319   1.396       .  A
C2315      C2316   1.403       .  A
C2316      C2317   1.397       .  A
C2316      F2323   1.357       .  S
C2317      H2322   1.084       .  S
C2317      C2318   1.403       .  A
C2318      C2319   1.401       .  A
C2319      F2320   1.358       .  S
C2324      H2331   1.082       .  S
C2324      C2325   1.405       .  A
C2324      C2329   1.400       .  A
C2325      C2326   1.408       .  A
C2326      C2327   1.401       .  A
C2326      F2333   1.358       .  S
C2327      H2332   1.083       .  S
C2327      C2328   1.404       .  A
C2328      C2329   1.408       .  A
C2329      F2330   1.357       .  S
C2334      H2341   1.083       .  S
C2334      C2335   1.406       .  A
C2334      C2339   1.397       .  A
C2335      C2336   1.407       .  A
C2336      C2337   1.401       .  A
C2336      F2343   1.357       .  S
C2337      H2342   1.082       .  S
C2337      C2338   1.407       .  A
C2338      C2339   1.408       .  A
C2339      F2340   1.357       .  S
C2344      H2351   1.083       .  S
C2344      C2345   1.405       .  A
C2344      C2349   1.400       .  A
C2345      C2346   1.407       .  A
C2346      C2347   1.399       .  A
C2346      F2353   1.357       .  S
C2347      H2352   1.083       .  S
C2347      C2348   1.405       .  A
C2348      C2349   1.409       .  A
C2349      F2350   1.357       .  S
C2354      H2361   1.083       .  S
C2354      C2355   1.404       .  A
C2354      C2359   1.400       .  A
C2355      C2356   1.405       .  A
C2356      C2357   1.395       .  A
C2356      F2363   1.358       .  S
C2357      H2362   1.083       .  S
C2357      C2358   1.403       .  A
C2358      C2359   1.406       .  A
C2359      F2360   1.357       .  S
C2364      H2371   1.075       .  S
C2364      C2365   1.411       .  A
C2364      C2369   1.393       .  A
C2365      C2366   1.414       .  A
C2366      C2367   1.404       .  A
C2366      F2373   1.358       .  S
C2367      H2372   1.083       .  S
C2367      C2368   1.404       .  A
C2368      C2369   1.405       .  A
C2369      F2370   1.358       .  S
C2374      H2381   1.077       .  S
C2374      C2375   1.411       .  A
C2374      C2379   1.397       .  A
C2375      C2376   1.412       .  A
C2376      C2377   1.399       .  A
C2376      F2383   1.357       .  S
C2377      H2382   1.083       .  S
C2377      C2378   1.403       .  A
C2378      C2379   1.406       .  A
C2379      F2380   1.356       .  S
C2384      H2391   1.078       .  S
C2384      C2385   1.409       .  A
C2384      C2389   1.394       .  A
C2385      C2386   1.414       .  A
C2386      C2387   1.401       .  A
C2386      F2393   1.357       .  S
C2387      H2392   1.084       .  S
C2387      C2388   1.403       .  A
C2388      C2389   1.407       .  A
C2389      F2390   1.355       .  S
C2394      H2401   1.080       .  S
C2394      C2395   1.409       .  A
C2394      C2399   1.396       .  A
C2395      C2396   1.414       .  A
C2396      C2397   1.402       .  A
C2396      F2403   1.357       .  S
C2397      H2402   1.083       .  S
C2397      C2398   1.404       .  A
C2398      C2399   1.408       .  A
C2399      F2400   1.355       .  S
C2404      H2411   1.078       .  S
C2404      C2405   1.413       .  A
C2404      C2409   1.400       .  A
C2405      C2406   1.415       .  A
C2406      C2407   1.397       .  A
C2406      F2413   1.358       .  S
C2407      H2412   1.084       .  S
C2407      C2408   1.398       .  A
C2408      C2409   1.399       .  A
C2409      F2410   1.357       .  S
C2414      H2421   1.077       .  S
C2414      C2415   1.411       .  A
C2414      C2419   1.398       .  A
C2415      C2416   1.413       .  A
C2416      C2417   1.401       .  A
C2416      F2423   1.357       .  S
C2417      H2422   1.083       .  S
C2417      C2418   1.403       .  A
C2418      C2419   1.407       .  A
C2419      F2420   1.356       .  S
C2424      H2431   1.082       .  S
C2424      C2425   1.403       .  A
C2424      C2429   1.399       .  A
C2425      C2426   1.406       .  A
C2426      C2427   1.394       .  A
C2426      F2433   1.358       .  S
C2427      H2432   1.081       .  S
C2427      C2428   1.410       .  A
C2428      C2429   1.411       .  A
C2429      F2430   1.356       .  S
C2434      H2441   1.079       .  S
C2434      C2435   1.409       .  A
C2434      C2439   1.396       .  A
C2435      C2436   1.413       .  A
C2436      C2437   1.404       .  A
C2436      F2443   1.358       .  S
C2437      H2442   1.083       .  S
C2437      C2438   1.405       .  A
C2438      C2439   1.407       .  A
C2439      F2440   1.355       .  S
C2444      N2462   1.353       .  A
C2444      C2481   1.465       .  S
C2444      C2787   1.487       .  S
N2445      N2462   1.327       .  A
N2445      N2467   1.319       .  A
C2446      N2471   1.339       .  A
C2446      C2484   1.463       .  S
C2446      H2491   1.080       .  S
H2447      C2488   1.082       .  S
C2448      N2472   1.342       .  A
C2448      C2452   1.466       .  S
C2448      H2477   1.081       .  S
Co2449     N2457   2.078   1_545  S
N2450      C2488   1.343       .  A
N2450      N2457   1.319       .  A
Co2451     N2454   2.073       .  S
C2452      N2490   1.348       .  A
C2452      C2774   1.479       .  S
N2453      N2460   1.319       .  A
N2453      N2483   1.325       .  A
N2454      N2472   1.320       .  A
N2454      N2490   1.321       .  A
N2455      C2484   1.353       .  A
N2455      N2465   1.326       .  A
H2456      C2481   1.080       .  S
N2457      N2478   1.324       .  A
N2458      N2476   1.319       .  A
N2458      N2463   1.322       .  A
C2459      N2463   1.350       .  A
C2459      C2487   1.464       .  S
C2459      C2717   1.483       .  S
N2460      C2475   1.339       .  A
C2461      N2489   1.336       .  A
C2461      C2464   1.462       .  S
C2461      H2495   1.080       .  S
C2464      N2485   1.353       .  A
C2464      C2737   1.482       .  S
N2465      N2471   1.319       .  A
N2466      C2492   1.338       .  A
N2466      N2468   1.320       .  A
N2467      C2481   1.339       .  A
N2468      N2496   1.327       .  A
N2468     Co2486   2.098       .  S
H2469      C2492   1.080       .  S
H2470      C2487   1.081       .  S
N2473      N2485   1.326       .  A
N2473      N2489   1.318       .  A
N2473     Co2482   2.088       .  S
C2474      N2478   1.348       .  A
C2474      C2488   1.459       .  S
C2474      C2757   1.468       .  S
C2475      C2494   1.464       .  S
C2475      H2479   1.080       .  S
N2476      C2487   1.344       .  A
C2480      N2496   1.355       .  A
C2480      C2492   1.463       .  S
C2480      C2747   1.487       .  S
N2483      C2494   1.352       .  A
C2484      C2767   1.484       .  S
Co2486    Cl2493   2.457       .  S
C2494      C2727   1.482       .  S
C2497      C2498   1.541       .  S
C2497      C2503   1.549       .  S
C2497      C2501   1.538       .  S
C2497      C2714   1.536       .  S
C2498      H2505   1.085       .  S
C2498      C2499   1.370       .  D
C2499      C2500   1.540       .  S
C2499      C2697   1.488       .  S
C2500      C2504   1.534       .  S
C2500      C2502   1.536       .  S
C2500      H2506   1.109       .  S
C2501      H2507   1.086       .  S
C2501      C2502   1.365       .  D
C2502      C2707   1.479       .  S
C2503      H2508   1.080       .  S
C2503      C2504   1.364       .  D
C2504      C2684   1.490       .  S
C2509      C2510   1.542       .  S
C2509      C2515   1.548       .  S
C2509      C2513   1.536       .  S
C2509      C2777   1.529       .  S
C2510      H2517   1.085       .  S
C2510      C2511   1.357       .  D
C2511      C2512   1.530       .  S
C2511      C2667   1.470       .  S
C2512      C2516   1.537       .  S
C2512      C2514   1.536       .  S
C2512      H2518   1.110       .  S
C2513      H2519   1.086       .  S
C2513      C2514   1.366       .  D
C2514      C2704   1.478       .  S
C2515      H2520   1.084       .  S
C2515      C2516   1.370       .  D
C2516      C2674   1.489       .  S
C2521      C2522   1.548       .  S
C2521      C2527   1.545       .  S
C2521      C2525   1.538       .  S
C2521      C2724   1.532       .  S
C2522      H2529   1.085       .  S
C2522      C2523   1.373       .  D
C2523      C2524   1.539       .  S
C2523      C2657   1.500       .  S
C2524      C2528   1.531       .  S
C2524      C2526   1.535       .  S
C2524      H2530   1.105       .  S
C2525      H2531   1.086       .  S
C2525      C2526   1.364       .  D
C2526      C2647   1.484       .  S
C2527      H2532   1.082       .  S
C2527      C2528   1.360       .  D
C2528      C2664   1.473       .  S
C2533      C2534   1.548       .  S
C2533      C2539   1.542       .  S
C2533      C2537   1.539       .  S
C2533      C2744   1.535       .  S
C2534      H2541   1.083       .  S
C2534      C2535   1.366       .  D
C2535      C2536   1.535       .  S
C2535      C2687   1.491       .  S
C2536      C2540   1.530       .  S
C2536      C2538   1.539       .  S
C2536      H2542   1.108       .  S
C2537      H2543   1.086       .  S
C2537      C2538   1.370       .  D
C2538      C2644   1.488       .  S
C2539      H2544   1.086       .  S
C2539      C2540   1.361       .  D
C2540      C2634   1.467       .  S
C2545      C2546   1.549       .  S
C2545      C2551   1.543       .  S
C2545      C2549   1.542       .  S
C2545      C2764   1.536       .  S
C2546      H2553   1.081       .  S
C2546      C2547   1.366       .  D
C2547      C2548   1.535       .  S
C2547      C2614   1.486       .  S
C2548      C2552   1.536       .  S
C2548      C2550   1.533       .  S
C2548      H2554   1.109       .  S
C2549      H2555   1.086       .  S
C2549      C2550   1.368       .  D
C2550      C2624   1.485       .  S
C2551      H2556   1.086       .  S
C2551      C2552   1.366       .  D
C2552      C2694   1.486       .  S
C2557      C2558   1.548       .  S
C2557      C2563   1.541       .  S
C2557      C2561   1.541       .  S
C2557      C2734   1.533       .  S
C2558      H2565   1.083       .  S
C2558      C2559   1.359       .  D
C2559      C2560   1.530       .  S
C2559      C2637   1.469       .  S
C2560      C2564   1.536       .  S
C2560      C2562   1.539       .  S
C2560      H2566   1.107       .  S
C2561      H2567   1.086       .  S
C2561      C2562   1.370       .  D
C2562      C2604   1.489       .  S
C2563      H2568   1.086       .  S
C2563      C2564   1.366       .  D
C2564      C2617   1.487       .  S
C2569      C2570   1.543       .  S
C2569      C2575   1.551       .  S
C2569      C2573   1.536       .  S
C2569      C2784   1.535       .  S
C2570      H2577   1.086       .  S
C2570      C2571   1.366       .  D
C2571      C2572   1.539       .  S
C2571      C2594   1.486       .  S
C2572      C2576   1.542       .  S
C2572      C2574   1.538       .  S
C2572      H2578   1.106       .  S
C2573      H2579   1.086       .  S
C2573      C2574   1.364       .  D
C2574      C2607   1.487       .  S
C2575      H2580   1.080       .  S
C2575      C2576   1.370       .  D
C2576      C2654   1.504       .  S
C2581      C2582   1.542       .  S
C2581      C2587   1.535       .  S
C2581      C2585   1.546       .  S
C2581      C2754   1.531       .  S
C2582      H2589   1.086       .  S
C2582      C2583   1.366       .  D
C2583      C2584   1.539       .  S
C2583      C2677   1.488       .  S
C2584      C2588   1.540       .  S
C2584      C2586   1.540       .  S
C2584      H2590   1.110       .  S
C2585      H2591   1.082       .  S
C2585      C2586   1.368       .  D
C2586      C2627   1.486       .  S
C2587      H2592   1.087       .  S
C2587      C2588   1.362       .  D
C2588      C2597   1.483       .  S
C2593      H2600   1.076       .  S
C2593      C2594   1.404       .  A
C2593      C2598   1.398       .  A
C2594      C2595   1.405       .  A
C2595      C2596   1.401       .  A
C2595      F2602   1.357       .  S
C2596      H2601   1.083       .  S
C2596      C2597   1.407       .  A
C2597      C2598   1.403       .  A
C2598      F2599   1.358       .  S
C2603      H2610   1.083       .  S
C2603      C2604   1.407       .  A
C2603      C2608   1.403       .  A
C2604      C2605   1.408       .  A
C2605      C2606   1.394       .  A
C2605      F2612   1.357       .  S
C2606      H2611   1.083       .  S
C2606      C2607   1.402       .  A
C2607      C2608   1.409       .  A
C2608      F2609   1.357       .  S
C2613      H2620   1.083       .  S
C2613      C2614   1.403       .  A
C2613      C2618   1.395       .  A
C2614      C2615   1.408       .  A
C2615      C2616   1.398       .  A
C2615      F2622   1.357       .  S
C2616      H2621   1.083       .  S
C2616      C2617   1.406       .  A
C2617      C2618   1.408       .  A
C2618      F2619   1.355       .  S
C2623      H2630   1.083       .  S
C2623      C2624   1.403       .  A
C2623      C2628   1.401       .  A
C2624      C2625   1.408       .  A
C2625      C2626   1.398       .  A
C2625      F2632   1.358       .  S
C2626      H2631   1.084       .  S
C2626      C2627   1.402       .  A
C2627      C2628   1.409       .  A
C2628      F2629   1.357       .  S
C2633      H2640   1.084       .  S
C2633      C2634   1.400       .  A
C2633      C2638   1.396       .  A
C2634      C2635   1.403       .  A
C2635      C2636   1.398       .  A
C2635      F2642   1.358       .  S
C2636      H2641   1.083       .  S
C2636      C2637   1.401       .  A
C2637      C2638   1.403       .  A
C2638      F2639   1.357       .  S
C2643      H2650   1.083       .  S
C2643      C2644   1.407       .  A
C2643      C2648   1.402       .  A
C2644      C2645   1.408       .  A
C2645      C2646   1.393       .  A
C2645      F2652   1.356       .  S
C2646      H2651   1.084       .  S
C2646      C2647   1.402       .  A
C2647      C2648   1.407       .  A
C2648      F2649   1.357       .  S
C2653      H2660   1.074       .  S
C2653      C2654   1.404       .  A
C2653      C2658   1.392       .  A
C2654      C2655   1.414       .  A
C2655      C2656   1.403       .  A
C2655      F2662   1.356       .  S
C2656      H2661   1.082       .  S
C2656      C2657   1.408       .  A
C2657      C2658   1.409       .  A
C2658      F2659   1.352       .  S
C2663      H2670   1.080       .  S
C2663      C2664   1.402       .  A
C2663      C2668   1.396       .  A
C2664      C2665   1.403       .  A
C2665      C2666   1.397       .  A
C2665      F2672   1.357       .  S
C2666      H2671   1.084       .  S
C2666      C2667   1.403       .  A
C2667      C2668   1.401       .  A
C2668      F2669   1.358       .  S
C2673      H2680   1.082       .  S
C2673      C2674   1.405       .  A
C2673      C2678   1.400       .  A
C2674      C2675   1.408       .  A
C2675      C2676   1.401       .  A
C2675      F2682   1.358       .  S
C2676      H2681   1.083       .  S
C2676      C2677   1.404       .  A
C2677      C2678   1.408       .  A
C2678      F2679   1.357       .  S
C2683      H2690   1.083       .  S
C2683      C2684   1.406       .  A
C2683      C2688   1.397       .  A
C2684      C2685   1.407       .  A
C2685      C2686   1.401       .  A
C2685      F2692   1.357       .  S
C2686      H2691   1.082       .  S
C2686      C2687   1.407       .  A
C2687      C2688   1.408       .  A
C2688      F2689   1.357       .  S
C2693      H2700   1.083       .  S
C2693      C2694   1.405       .  A
C2693      C2698   1.400       .  A
C2694      C2695   1.407       .  A
C2695      C2696   1.399       .  A
C2695      F2702   1.357       .  S
C2696      H2701   1.083       .  S
C2696      C2697   1.405       .  A
C2697      C2698   1.409       .  A
C2698      F2699   1.357       .  S
C2703      H2710   1.083       .  S
C2703      C2704   1.404       .  A
C2703      C2708   1.400       .  A
C2704      C2705   1.405       .  A
C2705      C2706   1.395       .  A
C2705      F2712   1.358       .  S
C2706      H2711   1.083       .  S
C2706      C2707   1.403       .  A
C2707      C2708   1.406       .  A
C2708      F2709   1.357       .  S
C2713      H2720   1.075       .  S
C2713      C2714   1.411       .  A
C2713      C2718   1.393       .  A
C2714      C2715   1.414       .  A
C2715      C2716   1.404       .  A
C2715      F2722   1.358       .  S
C2716      H2721   1.083       .  S
C2716      C2717   1.404       .  A
C2717      C2718   1.405       .  A
C2718      F2719   1.358       .  S
C2723      H2730   1.077       .  S
C2723      C2724   1.411       .  A
C2723      C2728   1.397       .  A
C2724      C2725   1.412       .  A
C2725      C2726   1.399       .  A
C2725      F2732   1.357       .  S
C2726      H2731   1.083       .  S
C2726      C2727   1.403       .  A
C2727      C2728   1.406       .  A
C2728      F2729   1.356       .  S
C2733      H2740   1.078       .  S
C2733      C2734   1.409       .  A
C2733      C2738   1.394       .  A
C2734      C2735   1.414       .  A
C2735      C2736   1.401       .  A
C2735      F2742   1.357       .  S
C2736      H2741   1.084       .  S
C2736      C2737   1.403       .  A
C2737      C2738   1.407       .  A
C2738      F2739   1.355       .  S
C2743      H2750   1.080       .  S
C2743      C2744   1.409       .  A
C2743      C2748   1.396       .  A
C2744      C2745   1.414       .  A
C2745      C2746   1.403       .  A
C2745      F2752   1.357       .  S
C2746      H2751   1.083       .  S
C2746      C2747   1.404       .  A
C2747      C2748   1.408       .  A
C2748      F2749   1.355       .  S
C2753      H2760   1.078       .  S
C2753      C2754   1.413       .  A
C2753      C2758   1.400       .  A
C2754      C2755   1.415       .  A
C2755      C2756   1.397       .  A
C2755      F2762   1.358       .  S
C2756      H2761   1.084       .  S
C2756      C2757   1.398       .  A
C2757      C2758   1.399       .  A
C2758      F2759   1.357       .  S
C2763      H2770   1.077       .  S
C2763      C2764   1.411       .  A
C2763      C2768   1.398       .  A
C2764      C2765   1.413       .  A
C2765      C2766   1.401       .  A
C2765      F2772   1.357       .  S
C2766      H2771   1.083       .  S
C2766      C2767   1.403       .  A
C2767      C2768   1.407       .  A
C2768      F2769   1.356       .  S
C2773      H2780   1.082       .  S
C2773      C2774   1.403       .  A
C2773      C2778   1.399       .  A
C2774      C2775   1.406       .  A
C2775      C2776   1.394       .  A
C2775      F2782   1.358       .  S
C2776      H2781   1.081       .  S
C2776      C2777   1.410       .  A
C2777      C2778   1.411       .  A
C2778      F2779   1.356       .  S
C2783      H2790   1.079       .  S
C2783      C2784   1.409       .  A
C2783      C2788   1.396       .  A
C2784      C2785   1.413       .  A
C2785      C2786   1.404       .  A
C2785      F2792   1.358       .  S
C2786      H2791   1.083       .  S
C2786      C2787   1.405       .  A
C2787      C2788   1.407       .  A
C2788      F2789   1.355       .  S
