geometry optimzed in LAMMPS
_audit_creation_date              2020-11-30 
_audit_creation_method            'lammps2cif' 
_symmetry_space_group_name_H-M    'P1' 
_symmetry_Int_Tables_number       1 
_symmetry_cell_setting            triclinic 
loop_ 
_symmetry_equiv_pos_as_xyz 
  x,y,z 
_cell_length_a                    31.805430100070385 
_cell_length_b                    30.83575978060957 
_cell_length_c                    31.265424155407164 
_cell_angle_alpha                 89.46456300467624 
_cell_angle_beta                  90.32920392883462 
_cell_angle_gamma                 91.44414376442496 
loop_ 
_atom_site_label 
_atom_site_type_symbol 
_atom_site_fract_x 
_atom_site_fract_y 
_atom_site_fract_z 
_atom_site_charge 
C1          C  0.34032608  0.64975278  0.62422853    -0.03300
N2          N  0.52243956  0.45880763  0.58379693    -0.06930
N3          N  0.50889592  0.44542196  0.62150837    -0.59050
N4          N  0.45672697  0.40889530  0.52964490    -0.06610
N5          N  0.42563931  0.38708905  0.51198418    -0.61180
N6          N  0.49080316  0.38565070  0.52916998    -0.06210
N7          N  0.48367356  0.34904122  0.50864714    -0.59030
N8          N  0.50292164  0.49340362  0.57293962    -0.05890
N9          N  0.48233262  0.50846714  0.60543190    -0.61530
C10         C  0.48107195  0.47571971  0.63325698     0.95250
C11         C  0.44254857  0.35038604  0.49770991     0.95020
N12         N  0.42698094  0.48982572  0.42855217    -0.07120
N13         N  0.39426519  0.50495969  0.40831315    -0.59630
N14         N  0.46976343  0.54500964  0.51096306    -0.05230
N15         N  0.47022676  0.57067767  0.54300790    -0.60880
N16         N  0.47466432  0.56598150  0.47531172    -0.07140
N17         N  0.47471240  0.60832185  0.48286391    -0.59890
N18         N  0.41613848  0.47705073  0.46734224    -0.04880
N19         N  0.37688443  0.48738077  0.47443869    -0.60970
Mn20       Mn  0.46057380  0.48001718  0.52054893     1.18440
C21         C  0.36421193  0.50683316  0.43831105     0.97330
C22         C  0.47101533  0.61030580  0.52614963     0.97990
N23         N  0.57793119  0.38130765  0.48172292    -0.07160
N24         N  0.61880830  0.38718228  0.47312876    -0.63470
N25         N  0.61165164  0.47484072  0.48870761    -0.05970
N26         N  0.65126081  0.46839762  0.49985810    -0.64150
N27         N  0.58984422  0.47795570  0.52348206    -0.06670
N28         N  0.61400930  0.48394237  0.55648562    -0.63740
N29         N  0.55547798  0.39612656  0.44987179    -0.05570
N30         N  0.57935232  0.41977553  0.42507026    -0.64430
Mn31       Mn  0.54802260  0.42263897  0.53144540     1.10660
C32         C  0.61877594  0.40946160  0.43573800     0.98550
C33         C  0.65184853  0.47223934  0.54336809     0.98630
N34         N  0.54830228  0.55650171  0.41602395    -0.06680
N35         N  0.55678546  0.59331601  0.43572926    -0.62050
N36         N  0.53178516  0.45911696  0.36796371    -0.06000
N37         N  0.55157477  0.46069048  0.33111657    -0.58780
N38         N  0.50100644  0.48672249  0.36585564    -0.07310
N39         N  0.50312159  0.50870186  0.32958759    -0.61620
N40         N  0.58185210  0.53244314  0.41559972    -0.06290
N41         N  0.61312776  0.55333649  0.43460129    -0.58800
Mn42       Mn  0.48652186  0.52527632  0.42032313     1.20190
Mn43       Mn  0.57370326  0.46277067  0.42691684     1.10090
Cl44       Cl  0.51619724  0.47199785  0.47335915    -0.86780
C45         C  0.59710977  0.59059820  0.44881037     0.95560
C46         C  0.53850356  0.49640380  0.31061806     0.95360
C47         C  0.66969147  0.31991113  0.63413166    -0.03300
C48         C  0.38114884  0.33683945  0.32945209    -0.03300
C49         C  0.67473003  0.62241596  0.31692463    -0.03300
C50         C  0.35420765  0.63641762  0.32964016    -0.03300
C51         C  0.69081704  0.32680812  0.32554975    -0.03300
C52         C  0.36531657  0.33826686  0.63675774    -0.03300
C53         C  0.63935518  0.63586711  0.62247478    -0.03300
C54         C  0.28138744  0.22059031  0.98072948    -0.00250
C55         C  0.24559041  0.24765703  0.98425243    -0.00250
C56         C  0.29932559  0.98355261  0.20499515    -0.00250
C57         C  0.26734795  0.98243673  0.23504241    -0.00250
C58         C  0.01826996  0.20408712  0.25073098    -0.00250
C59         C  0.02359776  0.23295215  0.21605547    -0.00250
C60         C  0.53296845  0.25702741  0.24782239    -0.00250
C61         C  0.52914324  0.22606298  0.21615030    -0.00250
C62         C  0.29081922  0.26313627  0.46974658    -0.00250
C63         C  0.25946163  0.23067361  0.47428480    -0.00250
C64         C  0.29899568  0.48480939  0.23207945    -0.00250
C65         C  0.26209570  0.48222406  0.20780456    -0.00250
C66         C  0.26899776  0.74886661  0.97775562    -0.00250
C67         C  0.23494141  0.71878415  0.97799807    -0.00250
C68         C  0.75170606  0.22134859  0.97785079    -0.00250
C69         C  0.77928541  0.25819789  0.97679614    -0.00250
C70         C  0.00951665  0.25732159  0.73637483    -0.00250
C71         C  0.01070644  0.22566388  0.70466490    -0.00250
C72         C  0.79717612  0.48006319  0.20154941    -0.00250
C73         C  0.76682715  0.48269669  0.23321164    -0.00250
C74         C  0.27155158  0.48423926  0.71071779    -0.00250
C75         C  0.24535131  0.48491268  0.74661117    -0.00250
C76         C  0.86198812  0.63937446  0.81238592    -0.03300
N77         N  0.05727766  0.54408685  0.90075624    -0.06930
N78         N  0.03943096  0.54555486  0.86257393    -0.59050
N79         N  0.09468914  0.55664355  0.00068216    -0.06610
N80         N  0.11389871  0.59474190  0.00276115    -0.61180
N81         N  0.11788094  0.52964066  0.97982828    -0.06210
N82         N  0.15440092  0.54797220  0.97174317    -0.59030
N83         N  0.03904238  0.57117722  0.92612147    -0.05890
N84         N  0.01056785  0.59295356  0.90558633    -0.61530
C85         C  0.00951537  0.57543456  0.86662244     0.95250
C86         C  0.14942870  0.59033963  0.98030371     0.95020
N87         N  0.99665086  0.50064386  0.06899652    -0.07120
N88         N  0.00852399  0.49002429  0.10852476    -0.59630
N89         N  0.96408202  0.54980304  0.97931343    -0.05230
N90         N  0.94247071  0.58340145  0.96857777    -0.60880
N91         N  0.93953754  0.51741381  0.99098728    -0.07140
N92         N  0.90013790  0.52908915  0.98906826    -0.59890
N93         N  0.01857564  0.53467770  0.05550781    -0.04880
N94         N  0.04504761  0.54783696  0.08441530    -0.60970
Mn95       Mn  0.02887168  0.55357876  0.99114544     1.18440
C96         C  0.03878812  0.52042333  0.11725008     0.97330
C97         C  0.90242694  0.57137577  0.97603119     0.97990
N98         N  0.11853822  0.43769307  0.96335978    -0.07160
N99         N  0.15856909  0.43549213  0.97281108    -0.63470
N100        N  0.04385528  0.40734633  0.89484193    -0.05970
N101        N  0.01328184  0.39328461  0.86988367    -0.64150
N102        N  0.05632235  0.44658695  0.88317697    -0.06670
N103        N  0.03131408  0.46043038  0.85208167    -0.63740
N104        N  0.09845697  0.40282599  0.97647820    -0.05570
N105        N  0.12474385  0.37636646  0.99500706    -0.64430
Mn106      Mn  0.08906943  0.48932404  0.92994416     1.10660
C107        C  0.16299841  0.39328404  0.98346756     0.98550
C108        C  0.00458071  0.42675403  0.84418755     0.98630
N109        N  0.94290454  0.42023641  0.96784909    -0.06680
N110        N  0.90485703  0.40407145  0.97003017    -0.62050
N111        N  0.01817479  0.37908439  0.02556491    -0.06000
N112        N  0.04058861  0.35464266  0.05058816    -0.58780
N113        N  0.99398493  0.40406868  0.04766139    -0.07310
N114        N  0.00102522  0.39837497  0.08854434    -0.61620
N115        N  0.96753795  0.39147731  0.95096080    -0.06290
N116        N  0.94702410  0.35458531  0.94574008    -0.58800
Mn117      Mn  0.96585901  0.46048077  0.01987749     1.20190
Mn118      Mn  0.03332592  0.39360983  0.96154128     1.10090
Cl119      Cl  0.02878239  0.47399393  0.97566372    -0.86780
C120        C  0.90838263  0.36152929  0.96077866     0.95560
C121        C  0.03042095  0.36802855  0.08978287     0.95360
C122        C  0.87522491  0.32078969  0.12732189    -0.03300
C123        C  0.16908746  0.32559544  0.82475757    -0.03300
C124        C  0.16391225  0.64383373  0.81750626    -0.03300
C125        C  0.85593264  0.33936589  0.80953469    -0.03300
C126        C  0.85928854  0.64305600  0.12177997    -0.03300
C127        C  0.73300783  0.48387731  0.70628152    -0.00250
C128        C  0.76671174  0.48692737  0.73515735    -0.00250
C129        C  0.16232571  0.62856017  0.13915291    -0.03300
C130        C  0.17614116  0.31604755  0.15873928    -0.03300
C131        C  0.22771107  0.99173933  0.70391182    -0.00250
C132        C  0.25727954  0.99498783  0.73678035    -0.00250
C133        C  0.51723239  0.71778714  0.25993332    -0.00250
C134        C  0.51346625  0.74187805  0.22169328    -0.00250
C135        C  0.51154016  0.20461390  0.73924340    -0.00250
C136        C  0.51113073  0.23561006  0.70669726    -0.00250
C137        C  0.67043625  0.13713228  0.81728276    -0.03300
N138        N  0.58336293  0.96046316  0.89757379    -0.06930
N139        N  0.60801232  0.95358349  0.86513121    -0.59050
N140        N  0.59164552  0.05247671  0.94292989    -0.06610
N141        N  0.59596764  0.09144372  0.95882337    -0.61180
N142        N  0.61875001  0.02589883  0.96018358    -0.06210
N143        N  0.64084940  0.04668412  0.98923329    -0.59030
N144        N  0.55326690  0.98665889  0.88680755    -0.05890
N145        N  0.55795749  0.99890983  0.84705638    -0.61530
C146        C  0.59363313  0.97985780  0.83420662     0.95250
C147        C  0.62490444  0.08693372  0.98929033     0.95020
N148        N  0.49587718  0.04988170  0.02013890    -0.07120
N149        N  0.49957037  0.07183666  0.05468054    -0.59630
N150        N  0.46794741  0.00072297  0.92625508    -0.05230
N151        N  0.44610215  0.00284714  0.89104532    -0.60880
N152        N  0.44312193  0.99615928  0.95914561    -0.07140
N153        N  0.40358659  0.99787225  0.94740303    -0.59890
N154        N  0.51068859  0.07103384  0.98722571    -0.04880
N155        N  0.52061033  0.11138840  0.99901161    -0.60970
Mn156      Mn  0.52930438  0.02924648  0.93350003     1.18440
C157        C  0.51270418  0.11110943  0.04200517     0.97330
C158        C  0.40618154  0.00393017  0.90493848     0.97990
N159        N  0.62318267  0.94955228  0.02641209    -0.07160
N160        N  0.65509388  0.96648160  0.04792538    -0.63470
N161        N  0.55450407  0.87441179  0.98343811    -0.05970
N162        N  0.52843174  0.85288476  0.95761107    -0.64150
N163        N  0.58744847  0.88930393  0.96206789    -0.06670
N164        N  0.58474112  0.87692600  0.92279136    -0.63740
N165        N  0.59458247  0.93381562  0.05228129    -0.05570
N166        N  0.60405497  0.94364542  0.09124858    -0.64430
Mn167      Mn  0.60590725  0.95579561  0.96191663     1.10660
C168        C  0.64238418  0.96176857  0.08910047     0.98550
C169        C  0.54707917  0.85733549  0.91943097     0.98630
N170        N  0.44055955  0.92693655  0.02367869    -0.06680
N171        N  0.40790306  0.92119276  0.99862219    -0.62050
N172        N  0.51714808  0.95200469  0.09038504    -0.06000
N173        N  0.51488773  0.93803139  0.12981457    -0.58780
N174        N  0.49155136  0.98371092  0.08472686    -0.07310
N175        N  0.46988482  0.99006957  0.11963843    -0.61620
N176        N  0.46696189  0.89533767  0.01981355    -0.06290
N177        N  0.45303644  0.86900822  0.98933426    -0.58800
Mn178      Mn  0.46673328  0.99053616  0.02237096     1.20190
Mn179      Mn  0.53364117  0.91054459  0.03738669     1.10090
Cl180      Cl  0.53415925  0.97115222  0.98844957    -0.86780
C181        C  0.41605585  0.88587064  0.97643809     0.95560
C182        C  0.47936595  0.95545091  0.14424568     0.95360
C183        C  0.67999236  0.81986671  0.14608330    -0.03300
C184        C  0.34537489  0.83792506  0.81842361    -0.03300
C185        C  0.34852564  0.14212781  0.81286845    -0.03300
C186        C  0.65206584  0.80924148  0.82226501    -0.03300
C187        C  0.36266810  0.81930189  0.13741364    -0.03300
C188        C  0.49154753  0.72772996  0.70064208    -0.00250
C189        C  0.49316626  0.75919846  0.73189660    -0.00250
C190        C  0.37888661  0.14903746  0.13188784    -0.03300
C191        C  0.68336162  0.14437216  0.14182686    -0.03300
C192        C  0.01757194  0.72635553  0.20301546    -0.00250
C193        C  0.01681857  0.75317997  0.23910438    -0.00250
C194        C  0.73862759  0.97153637  0.22921269    -0.00250
C195        C  0.76581942  0.97715438  0.26497859    -0.00250
C196        C  0.76066209  0.24597104  0.48702761    -0.00250
C197        C  0.78675200  0.21083077  0.48647899    -0.00250
C198        C  0.22455414  0.73170279  0.46587683    -0.00250
C199        C  0.25414762  0.69941993  0.46662690    -0.00250
C200        C  0.86197315  0.13509918  0.32618240    -0.03300
N201        N  0.94170092  0.94836792  0.40847383    -0.06930
N202        N  0.91438029  0.95041195  0.37716976    -0.59050
N203        N  0.99108584  0.03941594  0.39054150    -0.06610
N204        N  0.01177273  0.07506536  0.37964090    -0.61180
N205        N  0.00028071  0.00850205  0.36396769    -0.06210
N206        N  0.02586436  0.02329954  0.33451613    -0.59030
N207        N  0.92924603  0.97334017  0.43991310    -0.05890
N208        N  0.89074216  0.98531278  0.43191047    -0.61530
C209        C  0.88809428  0.98082246  0.38939168     0.95250
C210        C  0.03554280  0.06394286  0.34645685     0.95020
N211        N  0.05278867  0.06928817  0.48523096    -0.07120
N212        N  0.07517283  0.10251522  0.49803777    -0.59630
N213        N  0.96240599  0.01877208  0.52410960    -0.05230
N214        N  0.92855728  0.01107808  0.54700991    -0.60880
N215        N  0.99644851  0.01553431  0.54765729    -0.07140
N216        N  0.98668132  0.00548838  0.58723774    -0.59890
N217        N  0.01497985  0.08086611  0.47434031    -0.04880
N218        N  0.00943483  0.12184354  0.48433162    -0.60970
Mn219      Mn  0.97032160  0.02948988  0.45687634     1.18440
C220        C  0.04777670  0.13485738  0.49917183     0.97330
C221        C  0.94452843  0.00176771  0.58622916     0.97990
N222        N  0.07179049  0.94386204  0.35292700    -0.07160
N223        N  0.10891017  0.92823909  0.36084565    -0.63470
N224        N  0.01354086  0.86947675  0.44642205    -0.05970
N225        N  0.98543694  0.84925325  0.47104359    -0.64150
N226        N  0.99946407  0.87493106  0.40760326    -0.06670
N227        N  0.96226472  0.85724296  0.40408211    -0.63740
N228        N  0.04816093  0.93833439  0.38671786    -0.05570
N229        N  0.07022019  0.91988261  0.41771307    -0.64430
Mn230      Mn  0.00544495  0.94306934  0.38545832     1.10660
C231        C  0.10720587  0.91178987  0.39997092     0.98550
C232        C  0.95306198  0.84282231  0.44345605     0.98630
N233        N  0.06092712  0.94500920  0.54921750    -0.06680
N234        N  0.03743404  0.93867968  0.58334835    -0.62050
N235        N  0.11914654  0.96529181  0.46565609    -0.06000
N236        N  0.15698988  0.95081664  0.47152189    -0.58780
N237        N  0.11533038  0.00034622  0.48798043    -0.07310
N238        N  0.15022968  0.00880926  0.50884303    -0.61620
N239        N  0.06024104  0.90981694  0.52546780    -0.06290
N240        N  0.03400183  0.88079700  0.54261814    -0.58800
Mn241      Mn  0.05791448  0.00900657  0.51870796     1.20190
Mn242      Mn  0.06539408  0.91673792  0.45562967     1.10090
Cl243      Cl  0.02216239  0.97684985  0.45835493    -0.86780
C244        C  0.01973021  0.89927725  0.57858273     0.95560
C245        C  0.17501494  0.97528138  0.50185011     0.95360
C246        C  0.85602256  0.81335138  0.32597400    -0.03300
C247        C  0.18370639  0.82509904  0.30430765    -0.03300
C248        C  0.16718477  0.83404574  0.61589880    -0.03300
C249        C  0.85778970  0.12285302  0.64507003    -0.03300
C250        C  0.86046199  0.83108224  0.63339272    -0.03300
C251        C  0.74446016  0.70407562  0.48096276    -0.00250
C252        C  0.77474191  0.73765922  0.48061051    -0.00250
C253        C  0.18380917  0.12938106  0.32632067    -0.03300
C254        C  0.16324998  0.15793095  0.62058475    -0.03300
C255        C  0.01305196  0.71422463  0.72236505    -0.00250
C256        C  0.01242801  0.74228703  0.68639871    -0.00250
C257        C  0.77135824  0.97539244  0.72091550    -0.00250
C258        C  0.73534247  0.97579760  0.74623181    -0.00250
C259        C  0.78650613  0.72906526  0.96961437    -0.00250
C260        C  0.74951878  0.75355471  0.97301354    -0.00250
C261        C  0.88568901  0.79609506  0.66264021    -0.06930
C262        C  0.89895914  0.75764769  0.64253188    -0.18060
C263        C  0.94101351  0.74319514  0.64485046     0.10260
C264        C  0.96984979  0.76174654  0.67487769    -0.06860
C265        C  0.95384946  0.79303694  0.70211509    -0.18090
C266        C  0.91188661  0.80685807  0.69912430     0.10290
S267        S  0.95445177  0.69876901  0.61017718    -0.33060
S268        S  0.89199044  0.82255622  0.75033296    -0.33070
H269        H  0.86422053  0.78658600  0.75344425     0.28300
H270        H  0.99749487  0.69731129  0.61988867     0.28300
H271        H  0.87777318  0.74032747  0.62133271     0.18890
H272        H  0.97290909  0.80310643  0.72930029     0.18900
C273        C  0.82717482  0.86217431  0.65549519    -0.06930
C274        C  0.81578836  0.85895902  0.69896815    -0.18060
C275        C  0.80077341  0.89491752  0.72249402     0.10260
C276        C  0.78933920  0.93409041  0.70092577    -0.06860
C277        C  0.79313423  0.93388662  0.65632216    -0.18090
C278        C  0.81017043  0.89908263  0.63353872     0.10290
S279        S  0.80128310  0.88892006  0.77993857    -0.33060
S280        S  0.80640715  0.90246592  0.57595816    -0.33070
H281        H  0.77698814  0.93566369  0.57308363     0.28300
H282        H  0.79997357  0.93319592  0.78955092     0.28300
H283        H  0.81935182  0.82842153  0.71509595     0.18890
H284        H  0.78137181  0.96135078  0.63881784     0.18900
C285        C  0.83855366  0.80585270  0.59240415    -0.06930
C286        C  0.79391545  0.80052410  0.59017435    -0.18060
C287        C  0.77163305  0.78142733  0.55490721     0.10260
C288        C  0.79337237  0.76056837  0.52109739    -0.06860
C289        C  0.83719306  0.76356376  0.52385935    -0.18090
C290        C  0.85970909  0.78567132  0.55661733     0.10290
S291        S  0.71592775  0.79031064  0.55454134    -0.33060
S292        S  0.91549031  0.78321295  0.54694712    -0.33070
H293        H  0.92990750  0.80195507  0.58412992     0.28300
H294        H  0.70870471  0.78096087  0.51139038     0.28300
H295        H  0.77511573  0.81337574  0.61557044     0.18890
H296        H  0.85477955  0.74791185  0.49903813     0.18900
C297        C  0.82696664  0.10261747  0.68046552    -0.06930
C298        C  0.84559373  0.07674018  0.71337488    -0.18060
C299        C  0.82933267  0.03555389  0.72549203     0.10260
C300        C  0.79134648  0.01932765  0.70741584    -0.06860
C301        C  0.76845404  0.04905129  0.68221584    -0.18090
C302        C  0.78425990  0.09134355  0.67207706     0.10290
S303        S  0.85898144  0.00578601  0.76456532    -0.33060
S304        S  0.74843834  0.12883185  0.64827577    -0.33070
H305        H  0.76687909  0.16492925  0.66872538     0.28300
H306        H  0.85495593  0.96627497  0.74336493     0.28300
H307        H  0.87698590  0.08476287  0.72459684     0.18890
H308        H  0.73782756  0.03936450  0.67014771     0.18900
C309        C  0.12711584  0.81012436  0.63593113    -0.06930
C310        C  0.08651460  0.82018409  0.62150486    -0.18060
C311        C  0.05061756  0.79461104  0.63180867     0.10260
C312        C  0.05224133  0.76066045  0.66258417    -0.06860
C313        C  0.09295183  0.74437833  0.66799009    -0.18090
C314        C  0.12972161  0.76901037  0.65750064     0.10290
S315        S  0.01138917  0.79266434  0.59102678    -0.33060
S316        S  0.17944742  0.74477229  0.66947811    -0.33070
H317        H  0.16635495  0.70319580  0.65593317     0.28300
H318        H  0.03975454  0.79472260  0.55657511     0.28300
H319        H  0.08321205  0.84510334  0.59755712     0.18890
H320        H  0.09682515  0.71163498  0.67923693     0.18900
C321        C  0.82074566  0.78418671  0.35275739    -0.06930
C322        C  0.79626162  0.80865066  0.38269443    -0.18060
C323        C  0.78272633  0.79460324  0.42285038     0.10260
C324        C  0.79210161  0.75320445  0.43754737    -0.06860
C325        C  0.81159428  0.72555635  0.40802039    -0.18090
C326        C  0.82311481  0.73946469  0.36579338     0.10290
S327        S  0.75394488  0.83179790  0.45535340    -0.33060
S328        S  0.83592116  0.69699018  0.33019167    -0.33070
H329        H  0.81011644  0.71329666  0.29735354     0.28300
H330        H  0.74190715  0.86019051  0.42234961     0.28300
H331        H  0.79407694  0.84308028  0.37991721     0.18890
H332        H  0.81601474  0.69207674  0.41702174     0.18900
C333        C  0.12796192  0.15031786  0.58579788    -0.06930
C334        C  0.12516387  0.18145208  0.55195420    -0.18060
C335        C  0.08709840  0.19030813  0.53155078     0.10260
C336        C  0.05340391  0.16176162  0.53650126    -0.06860
C337        C  0.05229116  0.13574345  0.57349997    -0.18090
C338        C  0.08988783  0.12554184  0.59473635     0.10290
S339        S  0.08274792  0.23508934  0.49491083    -0.33060
S340        S  0.08794075  0.07722733  0.62819065    -0.33070
H341        H  0.04431622  0.07640890  0.63542095     0.28300
H342        H  0.03962332  0.22822118  0.48607590     0.28300
H343        H  0.15135159  0.20214689  0.54312939     0.18890
H344        H  0.02474367  0.11486181  0.57824588     0.18900
C345        C  0.08027432  0.07413904  0.34983552    -0.06930
C346        C  0.09627073  0.09375299  0.38777810    -0.18060
C347        C  0.13955781  0.10225743  0.39194154     0.10260
C348        C  0.16492848  0.09274626  0.35675694    -0.06860
C349        C  0.15053561  0.05451163  0.33600028    -0.18090
C350        C  0.10893506  0.05266121  0.32377418     0.10290
S351        S  0.16029805  0.12149400  0.44209597    -0.33060
S352        S  0.09569236  0.02432046  0.27499876    -0.33070
H353        H  0.06318842  0.05238367  0.26346631     0.28300
H354        H  0.20243549  0.11391905  0.43213575     0.28300
H355        H  0.07576358  0.10475255  0.41251552     0.18890
H356        H  0.17168479  0.03329272  0.31996745     0.18900
C357        C  0.89579043  0.86469059  0.62015851    -0.06930
C358        C  0.90286937  0.87570161  0.57753083    -0.18060
C359        C  0.94201472  0.89104294  0.56450144     0.10260
C360        C  0.97626034  0.89144586  0.59336739    -0.06860
C361        C  0.96668036  0.89218827  0.63673269    -0.18090
C362        C  0.92489359  0.88450291  0.64960383     0.10290
S363        S  0.94294038  0.91671335  0.51375152    -0.33060
S364        S  0.90776219  0.91053314  0.69748601    -0.33070
H365        H  0.94788561  0.92271129  0.71301221     0.28300
H366        H  0.98069654  0.93864373  0.51994873     0.28300
H367        H  0.87938433  0.86973939  0.55347537     0.18890
H368        H  0.99076235  0.90192566  0.65956137     0.18900
C369        C  0.87907842  0.07910852  0.63241892    -0.06930
C370        C  0.91829786  0.07024841  0.65350482    -0.18060
C371        C  0.93456851  0.02902079  0.65474803     0.10260
C372        C  0.91934694  0.00017226  0.62471226    -0.06860
C373        C  0.87690151  0.00092740  0.61585331    -0.18090
C374        C  0.85668427  0.04059632  0.61559334     0.10290
S375        S  0.98097879  0.01700355  0.68558913    -0.33060
S376        S  0.80493096  0.03379058  0.59071210    -0.33070
H377        H  0.78691304  0.07365633  0.59528141     0.28300
H378        H  0.97821328  0.05247334  0.71331422     0.28300
H379        H  0.93533155  0.09356593  0.67270595     0.18890
H380        H  0.86312686  0.97369253  0.59870392     0.18900
C381        C  0.18682883  0.94897772  0.53935885    -0.06930
C382        C  0.15987792  0.95149903  0.57486950    -0.18060
C383        C  0.14499580  0.91453604  0.59700923     0.10260
C384        C  0.15746777  0.87220788  0.58329239    -0.06860
C385        C  0.17956323  0.87221891  0.54367055    -0.18090
C386        C  0.20219227  0.90844490  0.52960119     0.10290
S387        S  0.11185968  0.92741550  0.64196073    -0.33060
S388        S  0.24322810  0.90166617  0.49084268    -0.33070
H389        H  0.25626984  0.94563383  0.49036033     0.28300
H390        H  0.10426507  0.88703030  0.66011950     0.28300
H391        H  0.14694144  0.98238995  0.58330693     0.18890
H392        H  0.18525956  0.84343474  0.52584788     0.18900
C393        C  0.13788288  0.88158843  0.41723152    -0.06930
C394        C  0.17804411  0.89315849  0.40307025    -0.18060
C395        C  0.18493116  0.88688530  0.35994365     0.10260
C396        C  0.16399463  0.85079691  0.34019057    -0.06860
C397        C  0.13404667  0.82657856  0.36595511    -0.18090
C398        C  0.12439416  0.84014652  0.40672664     0.10290
S399        S  0.20132742  0.93563751  0.33242940    -0.33060
S400        S  0.08629701  0.81055653  0.43806296    -0.33070
H401        H  0.09281690  0.83604182  0.47478290     0.28300
H402        H  0.23149288  0.94953118  0.36280670     0.28300
H403        H  0.19432725  0.92058769  0.41685715     0.18890
H404        H  0.12015405  0.79601627  0.35563584     0.18900
C405        C  0.88061401  0.82309974  0.36858396    -0.06930
C406        C  0.87159420  0.86059648  0.39222716    -0.18060
C407        C  0.88091568  0.86170638  0.43605400     0.10260
C408        C  0.90914337  0.83149440  0.45346105    -0.06860
C409        C  0.90456153  0.79048497  0.43702950    -0.18090
C410        C  0.89979512  0.78756537  0.39263414     0.10290
S411        S  0.84966899  0.89485244  0.46922360    -0.33060
S412        S  0.92353023  0.74040032  0.37010800    -0.33070
H413        H  0.91606127  0.71218205  0.40505209     0.28300
H414        H  0.83798291  0.85936184  0.49544767     0.28300
H415        H  0.85215827  0.88553845  0.37855908     0.18890
H416        H  0.91972376  0.76444806  0.45424458     0.18900
C417        C  0.89736866  0.02257980  0.36721958    -0.06930
C418        C  0.91072717  0.05882437  0.39195845    -0.18060
C419        C  0.91758529  0.09905832  0.37314673     0.10260
C420        C  0.89960730  0.10456689  0.33355602    -0.06860
C421        C  0.90482924  0.06882358  0.30575093    -0.18090
C422        C  0.90271961  0.02690751  0.32269605     0.10290
S423        S  0.94965100  0.14049491  0.39883188    -0.33060
S424        S  0.90426010  0.98154230  0.28727947    -0.33070
H425        H  0.91636380  0.00490299  0.25030270     0.28300
H426        H  0.95969722  0.15999293  0.35977833     0.28300
H427        H  0.91812077  0.05623140  0.42550435     0.18890
H428        H  0.90012513  0.07150183  0.27207450     0.18900
C429        C  0.21519571  0.75267804  0.42287428    -0.06930
C430        C  0.23931484  0.78908513  0.41205312    -0.18060
C431        C  0.23861408  0.80867544  0.37106501     0.10260
C432        C  0.20979917  0.79300771  0.33704153    -0.06860
C433        C  0.19172456  0.75157951  0.34810345    -0.18090
C434        C  0.19130631  0.73340627  0.38957367     0.10290
S435        S  0.27316067  0.85616748  0.37084876    -0.33060
S436        S  0.15466086  0.68831807  0.39698558    -0.33070
H437        H  0.16807716  0.67641633  0.43784985     0.28300
H438        H  0.30661495  0.83714225  0.39332293     0.28300
H439        H  0.25950866  0.80269575  0.43687022     0.18890
H440        H  0.17293230  0.73302106  0.32719959     0.18900
C441        C  0.21090378  0.75427952  0.50756485    -0.06930
C442        C  0.24037292  0.77647920  0.53454176    -0.18060
C443        C  0.22950536  0.79305135  0.57543524     0.10260
C444        C  0.18671914  0.79645755  0.58720826    -0.06860
C445        C  0.15792683  0.77260226  0.56054077    -0.18090
C446        C  0.16937560  0.75112421  0.52324196     0.10290
S447        S  0.27138174  0.80450557  0.61247989    -0.33060
S448        S  0.12775572  0.72168648  0.49693517    -0.33070
H449        H  0.13572287  0.74440883  0.45901324     0.28300
H450        H  0.24845391  0.79623601  0.64987073     0.28300
H451        H  0.27249505  0.78051507  0.52422132     0.18890
H452        H  0.12460317  0.77271215  0.56651650     0.18900
C453        C  0.80332888  0.19455838  0.44382051    -0.06930
C454        C  0.84689486  0.19131958  0.43904421    -0.18060
C455        C  0.86071031  0.16018706  0.41056227     0.10260
C456        C  0.84236556  0.15798400  0.36845442    -0.06860
C457        C  0.79882762  0.16847945  0.36943359    -0.18090
C458        C  0.77852008  0.18035036  0.40800763     0.10290
S459        S  0.85885905  0.11266429  0.44475580    -0.33060
S460        S  0.72265233  0.16941613  0.41041220    -0.33070
H461        H  0.71759049  0.17533768  0.45437854     0.28300
H462        H  0.81912104  0.09858488  0.43011961     0.28300
H463        H  0.86697095  0.19996135  0.46597883     0.18890
H464        H  0.77899120  0.16221708  0.34205353     0.18900
C465        C  0.83733605  0.14745140  0.60463501    -0.06930
C466        C  0.83429010  0.12778403  0.56382340    -0.18060
C467        C  0.80857961  0.14469075  0.53131020     0.10260
C468        C  0.80308013  0.18957489  0.52808468    -0.06860
C469        C  0.81571629  0.21343786  0.56447618    -0.18090
C470        C  0.82761810  0.19290365  0.60357549     0.10290
S471        S  0.77448543  0.10712459  0.50321287    -0.33060
S472        S  0.83180080  0.22722537  0.64993797    -0.33070
H473        H  0.83574657  0.26715552  0.62806297     0.28300
H474        H  0.73855999  0.13173654  0.50983734     0.28300
H475        H  0.84818587  0.09727284  0.55739564     0.18890
H476        H  0.81540688  0.24818510  0.56307383     0.18900
C477        C  0.78886973  0.93564803  0.28051318    -0.06930
C478        C  0.82617916  0.92359835  0.25991755    -0.18060
C479        C  0.84634963  0.88324471  0.26828409     0.10260
C480        C  0.83119231  0.85341070  0.30105146    -0.06860
C481        C  0.78759601  0.86027826  0.30715432    -0.18090
C482        C  0.76998440  0.90187219  0.30578426     0.10290
S483        S  0.88034842  0.86742440  0.22582725    -0.33060
S484        S  0.72618353  0.90838250  0.34136410    -0.33070
H485        H  0.72090271  0.95288468  0.33429254     0.28300
H486        H  0.86123498  0.82593814  0.22231298     0.28300
H487        H  0.83808825  0.94450284  0.23446187     0.18890
H488        H  0.76655379  0.83393392  0.31642313     0.18900
C489        C  0.77938453  0.02266366  0.28515241    -0.06930
C490        C  0.77322553  0.06466501  0.26612385    -0.18060
C491        C  0.79701546  0.10297689  0.27704199     0.10260
C492        C  0.82539228  0.10148232  0.31175242    -0.06860
C493        C  0.81727506  0.06574336  0.33956097    -0.18090
C494        C  0.79762379  0.02644568  0.32659498     0.10290
S495        S  0.78193350  0.15349659  0.25217383    -0.33060
S496        S  0.79341861  0.98427818  0.36661870    -0.33070
H497        H  0.79963436  0.01041367  0.40288532     0.28300
H498        H  0.80731687  0.18172834  0.27653462     0.28300
H499        H  0.74562788  0.07098339  0.24830168     0.18890
H500        H  0.83050319  0.06685929  0.37094082     0.18900
C501        C  0.05924457  0.77242729  0.25516398    -0.06930
C502        C  0.06995654  0.81627125  0.24837827    -0.18060
C503        C  0.10692020  0.83489266  0.26686982     0.10260
C504        C  0.14216202  0.80777556  0.27862719    -0.06860
C505        C  0.13391660  0.76359699  0.27037419    -0.18090
C506        C  0.09206016  0.74717023  0.27205029     0.10290
S507        S  0.10664867  0.89315793  0.27249114    -0.33060
S508        S  0.08148872  0.70232304  0.30798705    -0.33070
H509        H  0.04062184  0.71513668  0.31802615     0.28300
H510        H  0.06286118  0.89797813  0.26895450     0.28300
H511        H  0.04831552  0.83674679  0.23127084     0.18890
H512        H  0.15917848  0.74141551  0.26604327     0.18900
C513        C  0.89582594  0.79895530  0.29739547    -0.06930
C514        C  0.89912491  0.75817052  0.27712534    -0.18060
C515        C  0.93892912  0.74020891  0.26667926     0.10260
C516        C  0.97542596  0.76708354  0.26116505    -0.06860
C517        C  0.97179866  0.80906947  0.27702629    -0.18090
C518        C  0.93482027  0.82480781  0.29534460     0.10290
S519        S  0.94349150  0.68229161  0.27090823    -0.33060
S520        S  0.94315530  0.88020234  0.31258865    -0.33070
H521        H  0.90256095  0.89102254  0.32212728     0.28300
H522        H  0.98721159  0.68151279  0.27650782     0.28300
H523        H  0.87149804  0.73890333  0.27117658     0.18890
H524        H  0.99849854  0.83087905  0.27658650     0.18900
C525        C  0.72193077  0.01229651  0.20341457    -0.06930
C526        C  0.75039934  0.03834161  0.17859633    -0.18060
C527        C  0.74239781  0.08278911  0.16571596     0.10260
C528        C  0.70083862  0.10138824  0.16853770    -0.06860
C529        C  0.67165322  0.07230607  0.18939752    -0.18090
C530        C  0.68204067  0.03206560  0.20954331     0.10290
S531        S  0.78800195  0.11473715  0.14988812    -0.33060
S532        S  0.64266888  0.00916543  0.24446757    -0.33070
H533        H  0.61915408  0.04681669  0.24958495     0.28300
H534        H  0.81463931  0.08024920  0.14113887     0.28300
H535        H  0.78171364  0.02601823  0.17495914     0.18890
H536        H  0.63867018  0.07969692  0.18807053     0.18900
C537        C  0.67635960  0.85279255  0.80248829    -0.06930
C538        C  0.68765727  0.85604494  0.75855693    -0.18060
C539        C  0.70104783  0.89585737  0.73829686     0.10260
C540        C  0.71310000  0.93321014  0.76290863    -0.06860
C541        C  0.70747423  0.92840792  0.80709284    -0.18090
C542        C  0.68859724  0.89110021  0.82684317     0.10290
S543        S  0.69788826  0.89646108  0.68067000    -0.33060
S544        S  0.68434833  0.89699806  0.88410204    -0.33070
H545        H  0.67381035  0.85475356  0.89561737     0.28300
H546        H  0.70247369  0.94143527  0.67496843     0.28300
H547        H  0.68228939  0.82798283  0.73851020     0.18890
H548        H  0.71975905  0.95415935  0.82714813     0.18900
C549        C  0.68731610  0.78289215  0.84884402    -0.06930
C550        C  0.72573324  0.80415879  0.86114477    -0.18060
C551        C  0.74490601  0.79734068  0.90152082     0.10260
C552        C  0.72845492  0.76535439  0.93031207    -0.06860
C553        C  0.69695670  0.73753403  0.91338262    -0.18090
C554        C  0.68119292  0.74280937  0.87100458     0.10290
S555        S  0.78830087  0.83325196  0.91479701    -0.33060
S556        S  0.68076910  0.69306767  0.84158999    -0.33070
H557        H  0.67901952  0.71307179  0.80095389     0.28300
H558        H  0.77705206  0.83776099  0.95767387     0.28300
H559        H  0.73973703  0.82936714  0.84138257     0.18890
H560        H  0.68863519  0.70815095  0.93102658     0.18900
C561        C  0.61995052  0.78487529  0.78850339    -0.06930
C562        C  0.60007746  0.81346769  0.75804113    -0.18060
C563        C  0.55735846  0.80961971  0.74566275     0.10260
C564        C  0.53549997  0.77005918  0.75148766    -0.06860
C565        C  0.55694266  0.73727440  0.77214848    -0.18090
C566        C  0.59334028  0.74576250  0.79646317     0.10290
S567        S  0.53325055  0.85678175  0.72213278    -0.33060
S568        S  0.59109718  0.70935762  0.84230257    -0.33070
H569        H  0.54721816  0.70604470  0.84727730     0.28300
H570        H  0.50387144  0.83460061  0.69630837     0.28300
H571        H  0.61326900  0.84483593  0.75041088     0.18890
H572        H  0.54154349  0.70562335  0.77445167     0.18900
C573        C  0.37408852  0.80793387  0.78776454    -0.06930
C574        C  0.39526401  0.77158853  0.80420788    -0.18060
C575        C  0.43561561  0.75969132  0.79010867     0.10260
C576        C  0.45245182  0.77705644  0.75145235    -0.06860
C577        C  0.42385159  0.80216511  0.72699794    -0.18090
C578        C  0.38382795  0.81432401  0.74348154     0.10290
S579        S  0.46154927  0.71856960  0.82102594    -0.33060
S580        S  0.34344850  0.82534324  0.70440648    -0.33070
H581        H  0.30988448  0.81189356  0.73093761     0.28300
H582        H  0.47169024  0.69277582  0.78599997     0.28300
H583        H  0.38109621  0.75193394  0.82889761     0.18890
H584        H  0.43096282  0.80910688  0.69378485     0.18900
C585        C  0.69588421  0.79771034  0.10222711    -0.06930
C586        C  0.68151327  0.81308585  0.06140227    -0.18060
C587        C  0.70102643  0.80353379  0.02177468     0.10260
C588        C  0.72878967  0.76811092  0.01755452    -0.06860
C589        C  0.73507127  0.74652086  0.05779002    -0.18090
C590        C  0.72265384  0.76189065  0.09889032     0.10290
S591        S  0.69119845  0.84094085  0.97896104    -0.33060
S592        S  0.73914791  0.73114507  0.14519723    -0.33070
H593        H  0.70654733  0.74280089  0.17242846     0.28300
H594        H  0.67781845  0.87570965  0.00390577     0.28300
H595        H  0.65642500  0.83609669  0.06032386     0.18890
H596        H  0.74801158  0.71579473  0.05850044     0.18900
C597        C  0.71653726  0.83340628  0.18148538    -0.06930
C598        C  0.70316530  0.84723136  0.22192047    -0.18060
C599        C  0.70233726  0.89213446  0.23255177     0.10260
C600        C  0.73105231  0.92311248  0.21312525    -0.06860
C601        C  0.76001178  0.90294673  0.18524205    -0.18090
C602        C  0.75394227  0.85854374  0.17062407     0.10290
S603        S  0.65944051  0.90635244  0.26632652    -0.33060
S604        S  0.79234317  0.83539606  0.13603380    -0.33070
H605        H  0.82096559  0.87089420  0.13666467     0.28300
H606        H  0.67845083  0.94467040  0.28005191     0.28300
H607        H  0.68799855  0.82370589  0.24291890     0.18890
H608        H  0.78660446  0.92216789  0.17378001     0.18900
C609        C  0.61641164  0.10623794  0.03016283    -0.06930
C610        C  0.61209294  0.07807489  0.06495916    -0.18060
C611        C  0.64008910  0.08628968  0.09766028     0.10260
C612        C  0.64964136  0.12999443  0.10827659    -0.06860
C613        C  0.63528666  0.16190344  0.07832246    -0.18090
C614        C  0.62253251  0.15011889  0.03741873     0.10290
S615        S  0.68028241  0.04735278  0.09740072    -0.33060
S616        S  0.62077262  0.18933139  0.99427858    -0.33070
H617        H  0.63093992  0.22619811  0.01878489     0.28300
H618        H  0.68859544  0.04957215  0.05343023     0.28300
H619        H  0.60302026  0.04446939  0.05914187     0.18890
H620        H  0.64335579  0.19512218  0.08184785     0.18900
C621        C  0.49027323  0.14390563  0.06540838    -0.06930
C622        C  0.45232956  0.15231199  0.04388384    -0.18060
C623        C  0.41521145  0.13273039  0.05983686     0.10260
C624        C  0.41160143  0.12425743  0.10427088    -0.06860
C625        C  0.44954846  0.11308242  0.12403351    -0.18090
C626        C  0.48767960  0.13158528  0.10935826     0.10290
S627        S  0.38884540  0.09588997  0.02357237    -0.33060
S628        S  0.53425699  0.12049538  0.13992841    -0.33070
H629        H  0.55902678  0.15055279  0.11658369     0.28300
H630        H  0.37760785  0.06476322  0.05503905     0.28300
H631        H  0.45365314  0.15824550  0.00968374     0.18890
H632        H  0.44934471  0.09195965  0.15132010     0.18900
C633        C  0.44623789  0.92086314  0.14327138    -0.06930
C634        C  0.41142864  0.92617029  0.11567179    -0.18060
C635        C  0.38826930  0.89038206  0.10039524     0.10260
C636        C  0.39802105  0.84804363  0.11542330    -0.06860
C637        C  0.43963408  0.84395982  0.13037298    -0.18090
C638        C  0.45848922  0.87829735  0.15206766     0.10290
S639        S  0.34424625  0.90062272  0.06650651    -0.33060
S640        S  0.49354163  0.86646567  0.19528621    -0.33070
H641        H  0.49225633  0.90740075  0.21463406     0.28300
H642        H  0.34445016  0.94613012  0.06916080     0.28300
H643        H  0.40246724  0.95825342  0.10548677     0.18890
H644        H  0.45391359  0.81319646  0.13436784     0.18900
C645        C  0.53475886  0.83765519  0.87893838    -0.06930
C646        C  0.55016786  0.79620522  0.88114876    -0.18060
C647        C  0.59444032  0.79480197  0.88024258     0.10260
C648        C  0.61685718  0.82431565  0.85215298    -0.06860
C649        C  0.59308639  0.85893492  0.83527651    -0.18090
C650        C  0.55100092  0.86283787  0.84486950     0.10290
S651        S  0.61612935  0.77809169  0.93080905    -0.33060
S652        S  0.52805268  0.91094706  0.82499051    -0.33070
H653        H  0.50453357  0.91813815  0.86203233     0.28300
H654        H  0.58687627  0.74397619  0.93863910     0.28300
H655        H  0.53319255  0.77356746  0.90188450     0.18890
H656        H  0.60597579  0.88190538  0.81229738     0.18900
C657        C  0.37427545  0.10231617  0.82708250    -0.06930
C658        C  0.40630041  0.10827765  0.85569516    -0.18060
C659        C  0.40637388  0.08046145  0.89007481     0.10260
C660        C  0.38461379  0.03936821  0.88673053    -0.06860
C661        C  0.36258271  0.02899494  0.84962926    -0.18090
C662        C  0.36594580  0.05794973  0.81590702     0.10290
S663        S  0.43896559  0.09599827  0.93443103    -0.33060
S664        S  0.39328898  0.03362553  0.77216580    -0.33070
H665        H  0.36506366  0.04500946  0.74018204     0.28300
H666        H  0.45434393  0.13622730  0.91875895     0.28300
H667        H  0.42669179  0.13671185  0.85395393     0.18890
H668        H  0.35470973  0.99521097  0.84292854     0.18900
C669        C  0.39982246  0.88349787  0.93248166    -0.06930
C670        C  0.42777898  0.87791249  0.89857498    -0.18060
C671        C  0.41243878  0.87080012  0.85703426     0.10260
C672        C  0.36899155  0.86887521  0.84975844    -0.06860
C673        C  0.34394062  0.88923714  0.88077897    -0.18090
C674        C  0.35809148  0.89407597  0.92256386     0.10290
S675        S  0.44848602  0.85857534  0.81662011    -0.33060
S676        S  0.32059116  0.90866657  0.96274746    -0.33070
H677        H  0.28983233  0.92488228  0.93474377     0.28300
H678        H  0.44986217  0.90285523  0.80642054     0.28300
H679        H  0.46097176  0.87552298  0.90500535     0.18890
H680        H  0.31078157  0.89254206  0.87562122     0.18900
C681        C  0.67088838  0.95609088  0.12559893    -0.06930
C682        C  0.64917310  0.93636840  0.15977925    -0.18060
C683        C  0.64034340  0.89188311  0.15477739     0.10260
C684        C  0.66959358  0.86689757  0.13234824    -0.06860
C685        C  0.70161257  0.89052039  0.10882334    -0.18090
C686        C  0.70589858  0.93516021  0.11158133     0.10290
S687        S  0.58518628  0.87741327  0.15323403    -0.33060
S688        S  0.74889850  0.96449888  0.08634896    -0.33070
H689        H  0.77467388  0.92847861  0.08148125     0.28300
H690        H  0.58826299  0.84837304  0.11896766     0.28300
H691        H  0.62474749  0.95510343  0.17420164     0.18890
H692        H  0.72645823  0.87423902  0.09265087     0.18900
C693        C  0.72018450  0.02121237  0.76069602    -0.06930
C694        C  0.74607046  0.04843838  0.78668331    -0.18060
C695        C  0.73794661  0.09354644  0.79258144     0.10260
C696        C  0.69849698  0.11163302  0.78184843    -0.06860
C697        C  0.67792714  0.08691593  0.74859131    -0.18090
C698        C  0.68747922  0.04304426  0.73904062     0.10290
S699        S  0.78233147  0.13037231  0.79715544    -0.33060
S700        S  0.65641265  0.01641738  0.69824955    -0.33070
H701        H  0.65051463  0.97790028  0.72205380     0.28300
H702        H  0.81232571  0.09895229  0.80687146     0.28300
H703        H  0.77532391  0.03561974  0.79840449     0.18890
H704        H  0.64948140  0.09812302  0.73391745     0.18900
C705        C  0.64458657  0.09611240  0.83375569    -0.06930
C706        C  0.60915026  0.08307517  0.80738118    -0.18060
C707        C  0.60450251  0.04165703  0.79126004     0.10260
C708        C  0.62381421  0.00863296  0.81332471    -0.06860
C709        C  0.65857418  0.01906764  0.83953154    -0.18090
C710        C  0.66559250  0.06125961  0.85378583     0.10290
S711        S  0.56399084  0.02942526  0.75210542    -0.33060
S712        S  0.69024040  0.06563168  0.90514663    -0.33070
H713        H  0.71767454  0.03092635  0.90023279     0.28300
H714        H  0.57029721  0.06859378  0.72932805     0.28300
H715        H  0.58807886  0.10519635  0.79242582     0.18890
H716        H  0.67291662  0.99362717  0.85796390     0.18900
C717        C  0.46943498  0.18992606  0.75897772    -0.06930
C718        C  0.44432589  0.21950254  0.78102683    -0.18060
C719        C  0.40208544  0.20917564  0.79380195     0.10260
C720        C  0.38300695  0.16769251  0.78404243    -0.06860
C721        C  0.40673575  0.14260150  0.75540981    -0.18090
C722        C  0.44994909  0.15007808  0.74797710     0.10290
S723        S  0.37217437  0.25211997  0.81677139    -0.33060
S724        S  0.47799515  0.10789397  0.72196348    -0.33070
H725        H  0.51319010  0.11264903  0.74887505     0.28300
H726        H  0.40487192  0.28357241  0.81926009     0.28300
H727        H  0.45776614  0.25141410  0.78727476     0.18890
H728        H  0.39300124  0.11340999  0.74277829     0.18900
C729        C  0.63421463  0.16738123  0.79811276    -0.06930
C730        C  0.62954037  0.17347174  0.75350796    -0.18060
C731        C  0.58935215  0.17740327  0.73401053     0.10780
C732        C  0.55350712  0.18875749  0.75848540    -0.06860
C733        C  0.55928321  0.18954042  0.80311275    -0.18090
C734        C  0.59770776  0.17793346  0.82316569     0.10290
S735        S  0.58566957  0.16145237  0.67871448    -0.33060
S736        S  0.59693812  0.17037210  0.88069337    -0.33070
H737        H  0.55374483  0.17641799  0.88701104     0.28300
H738        H  0.54179044  0.15717745  0.67666672     0.28300
H739        H  0.65630833  0.16902094  0.73300427     0.18890
H740        H  0.53291769  0.19839056  0.82262134     0.18900
C741        C  0.46875101  0.75282093  0.20267076    -0.06930
C742        C  0.44013798  0.77741596  0.22636594    -0.18060
C743        C  0.39955734  0.78939370  0.21047705     0.10260
C744        C  0.38670608  0.78201603  0.16682325    -0.06860
C745        C  0.41039747  0.74797431  0.14852971    -0.18090
C746        C  0.45054539  0.73454457  0.16467211     0.10290
S747        S  0.36155850  0.80495609  0.24975110    -0.33060
S748        S  0.47553503  0.69297174  0.13457760    -0.33070
H749        H  0.50028578  0.67669019  0.16794804     0.28300
H750        H  0.39092902  0.82068651  0.28002783     0.28300
H751        H  0.44882921  0.78621064  0.25857694     0.18890
H752        H  0.39825576  0.73049552  0.12152797     0.18900
C753        C  0.55485951  0.76105714  0.20141217    -0.06930
C754        C  0.57377609  0.74305014  0.16505258    -0.18060
C755        C  0.61341444  0.75805226  0.14737542     0.10260
C756        C  0.63794213  0.79361803  0.16624751    -0.06860
C757        C  0.61860931  0.80836240  0.20452479    -0.18090
C758        C  0.57923744  0.79422916  0.22117913     0.10290
S759        S  0.62826873  0.73012187  0.09952026    -0.33060
S760        S  0.56093753  0.82496656  0.26593826    -0.33070
H761        H  0.51843676  0.81378451  0.26182211     0.28300
H762        H  0.60713631  0.69042388  0.10834146     0.28300
H763        H  0.55753284  0.71642875  0.14979130     0.18890
H764        H  0.62906863  0.83788567  0.21861540     0.18900
C765        C  0.21833206  0.94638789  0.68548971    -0.06930
C766        C  0.18990139  0.91766290  0.70607217    -0.18060
C767        C  0.18060023  0.87493011  0.69110064     0.10260
C768        C  0.19551322  0.86113479  0.65012929    -0.06860
C769        C  0.22892910  0.88838976  0.63373179    -0.18090
C770        C  0.24081005  0.92918251  0.65105783     0.10290
S771        S  0.14667634  0.84182951  0.72460376    -0.33060
S772        S  0.28298781  0.96002847  0.62616393    -0.33070
H773        H  0.29941707  0.92558740  0.60281718     0.28300
H774        H  0.15297529  0.86518816  0.76264267     0.28300
H775        H  0.17333217  0.92936756  0.73347194     0.18890
H776        H  0.24164221  0.88156188  0.60277784     0.18900
C777        C  0.20721284  0.03270430  0.68375544    -0.06930
C778        C  0.20170609  0.03634876  0.63923421    -0.18060
C779        C  0.18641570  0.07449588  0.61910563     0.10260
C780        C  0.17950044  0.11347615  0.64220031    -0.06860
C781        C  0.18975781  0.11061569  0.68631640    -0.18090
C782        C  0.19575856  0.07009618  0.70714907     0.10290
S783        S  0.17711667  0.07246311  0.56293181    -0.33060
S784        S  0.17833870  0.06631658  0.76164546    -0.33070
H785        H  0.15964205  0.02493978  0.75601706     0.28300
H786        H  0.21210534  0.04677343  0.55465369     0.28300
H787        H  0.20904434  0.00905168  0.61964680     0.18890
H788        H  0.18706585  0.13910331  0.70600197     0.18900
C789        C  0.27372486  0.03930175  0.75273196    -0.06930
C790        C  0.26857213  0.04834776  0.79600298    -0.18060
C791        C  0.28340439  0.08720952  0.81475960     0.10260
C792        C  0.30955186  0.11766982  0.79045373    -0.06860
C793        C  0.30845705  0.11205186  0.74569411    -0.18090
C794        C  0.29215652  0.07324996  0.72691409     0.10290
S795        S  0.27826655  0.08833219  0.87244256    -0.33060
S796        S  0.30283548  0.06655615  0.67103309    -0.33070
H797        H  0.31870059  0.02498708  0.67732571     0.28300
H798        H  0.24071234  0.06329018  0.87467696     0.28300
H799        H  0.25377792  0.02375783  0.81609870     0.18890
H800        H  0.32501333  0.13532288  0.72543564     0.18900
C801        C  0.31894156  0.87517328  0.79159956    -0.06930
C802        C  0.27714729  0.88719002  0.80269727    -0.18060
C803        C  0.25682258  0.92528924  0.78751873     0.10260
C804        C  0.27626046  0.95359655  0.75686838    -0.06860
C805        C  0.31673250  0.94297967  0.74514947    -0.18090
C806        C  0.33853181  0.90726733  0.76270946     0.10290
S807        S  0.20807294  0.93751810  0.81359792    -0.33060
S808        S  0.39311810  0.91007336  0.74858218    -0.33070
H809        H  0.38754907  0.92449679  0.70609592     0.28300
H810        H  0.20004324  0.97613867  0.79188113     0.28300
H811        H  0.26081607  0.87113032  0.82817739     0.18890
H812        H  0.33284368  0.96507376  0.72330394     0.18900
C813        C  0.06044282  0.70689860  0.19085826    -0.06930
C814        C  0.07517135  0.67183697  0.21490011    -0.18060
C815        C  0.11482648  0.65259410  0.20856827     0.10260
C816        C  0.13974313  0.66358078  0.17064582    -0.06860
C817        C  0.12814638  0.70459973  0.15245072    -0.18090
C818        C  0.08924086  0.72497843  0.16092039     0.10290
S819        S  0.12299871  0.60907617  0.24669700    -0.33060
S820        S  0.07768420  0.77364328  0.13146942    -0.33070
H821        H  0.03445070  0.76406817  0.12736046     0.28300
H822        H  0.12884989  0.57602173  0.21720490     0.28300
H823        H  0.05434591  0.65830043  0.23906202     0.18890
H824        H  0.14764175  0.72013317  0.12839098     0.18900
C825        C  0.82761788  0.67386015  0.09420376    -0.06930
C826        C  0.84192485  0.71610783  0.08038364    -0.18060
C827        C  0.82929792  0.73607007  0.04153327     0.10260
C828        C  0.80730944  0.71145261  0.00984326    -0.06860
C829        C  0.79620574  0.66885162  0.02082788    -0.18090
C830        C  0.79759601  0.65474437  0.06388896     0.10290
S831        S  0.84383324  0.79259903  0.03538865    -0.33060
S832        S  0.74712321  0.63081544  0.07820010    -0.33070
H833        H  0.74499664  0.60177524  0.04369367     0.28300
H834        H  0.80885984  0.80355760  0.01104563     0.28300
H835        H  0.86560075  0.73424640  0.09710820     0.18890
H836        H  0.77629654  0.65108732  0.99840965     0.18900
C837        C  0.97699113  0.70883705  0.17982922    -0.06930
C838        C  0.97553214  0.66551563  0.16710819    -0.18060
C839        C  0.93889478  0.64390313  0.15147434     0.10260
C840        C  0.89952366  0.66544638  0.14623777    -0.06860
C841        C  0.90070605  0.70890548  0.16110255    -0.18090
C842        C  0.93899742  0.73157970  0.17226709     0.10290
S843        S  0.94520303  0.58736416  0.14099448    -0.33060
S844        S  0.93764720  0.78994787  0.17091325    -0.33070
H845        H  0.98134266  0.79738713  0.16957608     0.28300
H846        H  0.98396191  0.59401924  0.12034172     0.28300
H847        H  0.00381744  0.64763174  0.16975349     0.18890
H848        H  0.87175026  0.72639402  0.16295315     0.18900
C849        C  0.82272386  0.36151481  0.77655531    -0.06930
C850        C  0.83760103  0.38697965  0.74130711    -0.18060
C851        C  0.82419372  0.42969833  0.73296514     0.10260
C852        C  0.78705202  0.44481145  0.75162486    -0.06860
C853        C  0.76466718  0.41422703  0.77753766    -0.18090
C854        C  0.78083907  0.37245256  0.78760778     0.10290
S855        S  0.85348523  0.46323341  0.69548789    -0.33060
S856        S  0.74244284  0.33054894  0.80069073    -0.33070
H857        H  0.76863391  0.29586571  0.79119781     0.28300
H858        H  0.88823162  0.43623467  0.69173533     0.28300
H859        H  0.86165653  0.37504773  0.72105524     0.18890
H860        H  0.73300466  0.42151325  0.78720216     0.18900
C861        C  0.12705862  0.66310871  0.78863776    -0.06930
C862        C  0.09232348  0.63611198  0.77592210    -0.18060
C863        C  0.05839679  0.65163506  0.75076662     0.10260
C864        C  0.05358317  0.69654941  0.74339913    -0.06860
C865        C  0.08727710  0.72396534  0.75749391    -0.18090
C866        C  0.12538908  0.70712006  0.77428848     0.10290
S867        S  0.02385394  0.61354019  0.72381224    -0.33060
S868        S  0.17122625  0.74275598  0.77628497    -0.33070
H869        H  0.14859330  0.77894371  0.78892465     0.28300
H870        H  0.04640621  0.57616737  0.73419544     0.28300
H871        H  0.09311268  0.60181982  0.78344988     0.18890
H872        H  0.08525177  0.75856006  0.75198679     0.18900
C873        C  0.06449884  0.37341914  0.11879988    -0.06930
C874        C  0.06363121  0.35031512  0.15648827    -0.18060
C875        C  0.10136536  0.34488699  0.17740224     0.10260
C876        C  0.13872910  0.34618448  0.15203016    -0.06860
C877        C  0.13970293  0.37666198  0.11862819    -0.18090
C878        C  0.10232168  0.39329636  0.10426944     0.10290
S879        S  0.10097019  0.36328081  0.23180253    -0.33060
S880        S  0.10483593  0.43660175  0.06571538    -0.33070
H881        H  0.06297666  0.44794896  0.06774325     0.28300
H882        H  0.05840060  0.35270360  0.23997488     0.28300
H883        H  0.03391755  0.34099830  0.17109423     0.18890
H884        H  0.16828101  0.38506549  0.10163323     0.18900
C885        C  0.12561907  0.59246396  0.12969542    -0.06930
C886        C  0.08423600  0.59933409  0.14570323    -0.18060
C887        C  0.06228318  0.56596252  0.16854071     0.10260
C888        C  0.06675366  0.52423694  0.15437114    -0.06860
C889        C  0.10794805  0.51451699  0.14371703    -0.18090
C890        C  0.13391744  0.54694080  0.12445227     0.10290
S891        S  0.02408590  0.57547949  0.20932148    -0.33060
S892        S  0.16158904  0.52719316  0.07921770    -0.33070
H893        H  0.15956518  0.56750736  0.05977067     0.28300
H894        H  0.01288594  0.53144799  0.21593461     0.28300
H895        H  0.07101744  0.63104136  0.14435398     0.18890
H896        H  0.11487802  0.48087881  0.13887260     0.18900
C897        C  0.87575660  0.60331615  0.99585898    -0.06930
C898        C  0.84647721  0.58329545  0.02318960    -0.18060
C899        C  0.85850031  0.58171050  0.06598799     0.10260
C900        C  0.87832357  0.61929171  0.08354562    -0.06860
C901        C  0.90130986  0.64635186  0.05495532    -0.18090
C902        C  0.89810910  0.64051717  0.01125110     0.10290
S903        S  0.87334848  0.52818889  0.08377375    -0.33060
S904        S  0.93260225  0.67450044  0.97907032    -0.33070
H905        H  0.92103506  0.65509660  0.94034250     0.28300
H906        H  0.87950842  0.53726635  0.12690441     0.28300
H907        H  0.82869563  0.55544850  0.01112500     0.18890
H908        H  0.91804766  0.67507691  0.06626158     0.18900
C909        C  0.88706704  0.37951680  0.81763111    -0.06930
C910        C  0.91607462  0.39304391  0.78422526    -0.18060
C911        C  0.94814528  0.42367936  0.79035291     0.10260
C912        C  0.96032459  0.43158239  0.83179532    -0.06860
C913        C  0.93021148  0.42376619  0.86365964    -0.18090
C914        C  0.89132093  0.40330741  0.85560300     0.10290
S915        S  0.97377708  0.44979836  0.74535871    -0.33060
S916        S  0.84742141  0.42784546  0.88067792    -0.33070
H917        H  0.84695115  0.39955092  0.91586207     0.28300
H918        H  0.99721935  0.47986748  0.76998081     0.28300
H919        H  0.91707224  0.37806308  0.75354391     0.18890
H920        H  0.93682983  0.43536115  0.89467776     0.18900
C921        C  0.14426206  0.61230250  0.85148179    -0.06930
C922        C  0.11128204  0.62729810  0.87657195    -0.18060
C923        C  0.11682425  0.63262219  0.92086636     0.10260
C924        C  0.15418832  0.61703605  0.94116575    -0.06860
C925        C  0.18564026  0.60121707  0.91445008    -0.18090
C926        C  0.17256191  0.58692069  0.87442932     0.10290
S927        S  0.07648220  0.66235773  0.94763417    -0.33060
S928        S  0.17426479  0.52985332  0.86274198    -0.33070
H929        H  0.20656652  0.52102789  0.89216169     0.28300
H930        H  0.09831967  0.66853593  0.98576136     0.28300
H931        H  0.08314463  0.63889539  0.86147435     0.18890
H932        H  0.21226171  0.58541351  0.92913687     0.18900
C933        C  0.18063649  0.36942532  0.94662342    -0.06930
C934        C  0.15541070  0.33338507  0.93492989    -0.18060
C935        C  0.13341156  0.33409649  0.89653729     0.10260
C936        C  0.15329766  0.35523288  0.86123020    -0.06860
C937        C  0.17887963  0.39176096  0.87191752    -0.18090
C938        C  0.19718769  0.39520701  0.91264065     0.10290
S939        S  0.08692305  0.29943686  0.89386753    -0.33060
S940        S  0.23719196  0.43663614  0.92172939    -0.33070
H941        H  0.24732625  0.42215319  0.96327626     0.28300
H942        H  0.06247920  0.32951205  0.87230139     0.28300
H943        H  0.14329767  0.31202978  0.95953441     0.18890
H944        H  0.18833068  0.41505450  0.84785750     0.18900
C945        C  0.89268997  0.33269811  0.99525015    -0.06930
C946        C  0.86118429  0.35303814  0.01742361    -0.18060
C947        C  0.87002422  0.36747742  0.05863325     0.10260
C948        C  0.89533276  0.34123582  0.08580596    -0.06860
C949        C  0.92582231  0.31748923  0.06401471    -0.18090
C950        C  0.92306892  0.31042490  0.01976301     0.10290
S951        S  0.84526321  0.41651902  0.07489647    -0.33060
S952        S  0.95933613  0.27434737  0.99476371    -0.33070
H953        H  0.97946778  0.26046636  0.03249839     0.28300
H954        H  0.83517706  0.43220535  0.03378667     0.28300
H955        H  0.83716413  0.36930030  0.99890992     0.18890
H956        H  0.95219881  0.30466448  0.08111851     0.18900
C957        C  0.84206177  0.66670429  0.85177792    -0.06930
C958        C  0.86588790  0.68995995  0.88351339    -0.18060
C959        C  0.84800736  0.71502633  0.91648663     0.10260
C960        C  0.80462894  0.71172575  0.92614392    -0.06860
C961        C  0.78061823  0.68941221  0.89421191    -0.18090
C962        C  0.79855687  0.67434820  0.85520515     0.10290
S963        S  0.88206687  0.75512931  0.94109818    -0.33060
S964        S  0.76757619  0.67450150  0.80720809    -0.33070
H965        H  0.76206356  0.71961930  0.80929462     0.28300
H966        H  0.85053834  0.78494728  0.94713023     0.28300
H967        H  0.89908769  0.69195889  0.88317434     0.18890
H968        H  0.74795244  0.68263868  0.89893130     0.18900
C969        C  0.89403041  0.67229743  0.78828315    -0.06930
C970        C  0.93271912  0.68400533  0.80982041    -0.18060
C971        C  0.96758163  0.70358705  0.78993873     0.10260
C972        C  0.97127606  0.70164563  0.74526728    -0.06860
C973        C  0.93396552  0.68762852  0.72346335    -0.18090
C974        C  0.89455462  0.68266638  0.74429593     0.10290
S975        S  0.00653395  0.72826607  0.82447966    -0.33060
S976        S  0.84887929  0.70225434  0.71655350    -0.33070
H977        H  0.82807994  0.71323829  0.75419723     0.28300
H978        H  0.01592308  0.76266349  0.79594733     0.28300
H979        H  0.93997220  0.67211175  0.84123332     0.18890
H980        H  0.93466153  0.68005284  0.69034645     0.18900
C981        C  0.82739412  0.60628795  0.79119280    -0.06930
C982        C  0.82192582  0.60151662  0.74662374    -0.18060
C983        C  0.80275625  0.56453647  0.72722180     0.10260
C984        C  0.78442412  0.53045021  0.75232670    -0.06860
C985        C  0.78506193  0.53670264  0.79663457    -0.18090
C986        C  0.80534675  0.57307929  0.81622499     0.10290
S987        S  0.80977374  0.55966526  0.67052209    -0.33060
S988        S  0.80173966  0.57464029  0.87392392    -0.33070
H989        H  0.79265986  0.53028708  0.88107464     0.28300
H990        H  0.81244896  0.60441686  0.66126948     0.28300
H991        H  0.83840189  0.62275465  0.72559312     0.18890
H992        H  0.76982518  0.51204166  0.81642316     0.18900
C993        C  0.89375476  0.60449646  0.82379938    -0.06930
C994        C  0.90107917  0.59430311  0.86648302    -0.18060
C995        C  0.93376302  0.56790820  0.87608927     0.10260
C996        C  0.96797361  0.56844565  0.84851431    -0.06860
C997        C  0.96018405  0.57052552  0.80555883    -0.18090
C998        C  0.92105231  0.58489724  0.79212461     0.10290
S999        S  0.91735332  0.51649603  0.89564883    -0.33060
S1000       S  0.91228557  0.58235838  0.73517143    -0.33070
H1001       H  0.94048248  0.54901078  0.72693668     0.28300
H1002       H  0.95899397  0.50416111  0.90392691     0.28300
H1003       H  0.87981998  0.60280514  0.89158769     0.18890
H1004       H  0.98477013  0.56317223  0.78342374     0.18900
C1005       C  0.22879871  0.52874553  0.76256150    -0.06930
C1006       C  0.19331436  0.54716482  0.74304490    -0.18060
C1007       C  0.18012372  0.58993171  0.75203250     0.10260
C1008       C  0.19438018  0.61274069  0.78951909    -0.06860
C1009       C  0.23127407  0.59394783  0.80771979    -0.18090
C1010       C  0.24952204  0.55521877  0.79348806     0.10290
S1011       S  0.15615759  0.61693691  0.70718703    -0.33060
S1012       S  0.29732418  0.54080510  0.82063412    -0.33070
H1013       H  0.31048385  0.51077424  0.79091741     0.28300
H1014       H  0.17553753  0.65712713  0.71689162     0.28300
H1015       H  0.17742088  0.52947004  0.71786112     0.18890
H1016       H  0.24411051  0.60485709  0.83756925     0.18900
C1017       C  0.22644593  0.44224881  0.76489882    -0.06930
C1018       C  0.18994280  0.42412402  0.74597343    -0.18060
C1019       C  0.17375256  0.38201031  0.75735618     0.10260
C1020       C  0.19398452  0.35602354  0.78974387    -0.06860
C1021       C  0.23555709  0.37043192  0.79771614    -0.18090
C1022       C  0.24800631  0.41465160  0.79378437     0.10290
S1023       S  0.14028097  0.35705954  0.71718651    -0.33060
S1024       S  0.29166068  0.43373538  0.82620776    -0.33070
H1025       H  0.29994146  0.39409430  0.84678918     0.28300
H1026       H  0.12131031  0.39551915  0.70335896     0.28300
H1027       H  0.17547327  0.44199131  0.72005197     0.18890
H1028       H  0.25872555  0.34741433  0.80715996     0.18900
C1029       C  0.81410429  0.52225443  0.18277026    -0.06930
C1030       C  0.83879921  0.55116910  0.20797897    -0.18060
C1031       C  0.84904406  0.59400369  0.19343825     0.10260
C1032       C  0.83585447  0.60828740  0.15217702    -0.06860
C1033       C  0.80220076  0.58341205  0.13626442    -0.18090
C1034       C  0.79786050  0.53897832  0.14425492     0.10290
S1035       S  0.86365088  0.63173729  0.23397001    -0.33060
S1036       S  0.76967368  0.50752096  0.10436692    -0.33070
H1037       H  0.78650853  0.46775172  0.11566601     0.28300
H1038       H  0.84150780  0.66629304  0.21565435     0.28300
H1039       H  0.84778114  0.54134669  0.24003866     0.18890
H1040       H  0.77330204  0.59818106  0.14484851     0.18900
C1041       C  0.81673869  0.43727404  0.18665100    -0.06930
C1042       C  0.86055373  0.43648245  0.18077775    -0.18060
C1043       C  0.88122429  0.40001436  0.16426453     0.10260
C1044       C  0.85825338  0.36012686  0.15513550    -0.06860
C1045       C  0.81634735  0.35912816  0.16994226    -0.18090
C1046       C  0.79443635  0.39744056  0.17809291     0.10290
S1047       S  0.93665089  0.40939342  0.15593499    -0.33060
S1048       S  0.73845720  0.39278586  0.16945738    -0.33070
H1049       H  0.73294807  0.43665693  0.16027766     0.28300
H1050       H  0.94800118  0.36783283  0.14453299     0.28300
H1051       H  0.87912629  0.46557539  0.18754923     0.18890
H1052       H  0.79828873  0.32894359  0.16880711     0.18900
C1053       C  0.05260249  0.21149579  0.68743015    -0.06930
C1054       C  0.07789914  0.24034458  0.66362485    -0.18060
C1055       C  0.11528948  0.22747222  0.64321765     0.10260
C1056       C  0.13397208  0.18550487  0.65261280    -0.06860
C1057       C  0.10930956  0.16022527  0.68261399    -0.18090
C1058       C  0.06893777  0.17067423  0.69665011     0.10290
S1059       S  0.13189540  0.26591734  0.60238645    -0.33060
S1060       S  0.04091675  0.13092647  0.72917132    -0.33070
H1061       H  0.02388969  0.16081084  0.75754440     0.28300
H1062       H  0.09171117  0.28055542  0.59104167     0.28300
H1063       H  0.06595720  0.27247679  0.65773373     0.18890
H1064       H  0.11737126  0.12798444  0.69164604     0.18900
C1065       C  0.89385103  0.15550705  0.66234469    -0.06930
C1066       C  0.92451544  0.17088181  0.63259855    -0.18060
C1067       C  0.96074862  0.19532062  0.64476720     0.10260
C1068       C  0.97093280  0.20137263  0.68867807    -0.06860
C1069       C  0.94107095  0.18564090  0.71829621    -0.18090
C1070       C  0.90170344  0.16791309  0.70568628     0.10290
S1071       S  0.98835447  0.22361575  0.60253210    -0.33060
S1072       S  0.86302956  0.16891503  0.74673616    -0.33070
H1073       H  0.82809011  0.17524439  0.72026605     0.28300
H1074       H  0.02579856  0.20277828  0.61051792     0.28300
H1075       H  0.91984504  0.16436648  0.59890655     0.18890
H1076       H  0.94706583  0.19025018  0.75209237     0.18900
C1077       C  0.96670550  0.27347087  0.75267951    -0.06930
C1078       C  0.96132532  0.27552045  0.79682774    -0.18060
C1079       C  0.92576248  0.29383490  0.81554473     0.10260
C1080       C  0.88974347  0.30670864  0.79053915    -0.06860
C1081       C  0.89268563  0.29782605  0.74632005    -0.18090
C1082       C  0.93144919  0.28640088  0.72709550     0.10290
S1083       S  0.92904753  0.30107656  0.87228908    -0.33060
S1084       S  0.93453870  0.29554298  0.67021593    -0.33070
H1085       H  0.97853201  0.29924415  0.66804708     0.28300
H1086       H  0.97314891  0.30079366  0.87628428     0.28300
H1087       H  0.98664499  0.26454669  0.81719610     0.18890
H1088       H  0.86636344  0.30470080  0.72562429     0.18900
C1089       C  0.12849574  0.30599221  0.80138360    -0.06930
C1090       C  0.09197704  0.33157490  0.79683715    -0.18060
C1091       C  0.05596059  0.31783900  0.77328962     0.10260
C1092       C  0.05099945  0.27474819  0.75856253    -0.06860
C1093       C  0.08712801  0.24916578  0.76495853    -0.18090
C1094       C  0.12666845  0.26706855  0.77765098     0.10290
S1095       S  0.02042187  0.35892969  0.75821102    -0.33060
S1096       S  0.17269893  0.23875891  0.76100770    -0.33070
H1097       H  0.20158672  0.27350854  0.76551134     0.28300
H1098       H  0.01625776  0.34477190  0.71580561     0.28300
H1099       H  0.09284820  0.36464829  0.80822966     0.18890
H1100       H  0.08601418  0.21505450  0.75932261     0.18900
C1101       C  0.71841063  0.16360073  0.10902256    -0.06930
C1102       C  0.73077079  0.13813685  0.07390340    -0.18060
C1103       C  0.73680657  0.15437102  0.03195596     0.10260
C1104       C  0.73841887  0.19982745  0.02284426    -0.06860
C1105       C  0.73219802  0.22499692  0.06070672    -0.18090
C1106       C  0.72931675  0.20723223  0.10314177     0.10290
S1107       S  0.73383236  0.11273741  0.99299470    -0.33060
S1108       S  0.74974694  0.23799044  0.14806483    -0.33070
H1109       H  0.74409361  0.20448169  0.17845128     0.28300
H1110       H  0.69932922  0.13186389  0.97269660     0.28300
H1111       H  0.73343068  0.10413280  0.07826038     0.18890
H1112       H  0.72806518  0.25890818  0.05833559     0.18900
C1113       C  0.69720462  0.16412388  0.85489407    -0.06930
C1114       C  0.73212021  0.14668179  0.87749463    -0.18060
C1115       C  0.75339972  0.16668053  0.91275899     0.10260
C1116       C  0.73545609  0.20219009  0.93435869    -0.06860
C1117       C  0.70371950  0.22284231  0.91055085    -0.18090
C1118       C  0.68908346  0.20761941  0.86968184     0.10290
S1119       S  0.80375738  0.14431071  0.92716212    -0.33060
S1120       S  0.66800543  0.24975248  0.83620007    -0.33070
H1121       H  0.68851098  0.23567450  0.79923014     0.28300
H1122       H  0.81059671  0.16753355  0.96501060     0.28300
H1123       H  0.74433138  0.11617056  0.86837952     0.18890
H1124       H  0.69267992  0.25347866  0.92210665     0.18900
C1125       C  0.80029431  0.27245964  0.01951534    -0.06930
C1126       C  0.82827672  0.24445618  0.04105526    -0.18060
C1127       C  0.84281823  0.25195740  0.08382155     0.10260
C1128       C  0.83706952  0.29258432  0.10459975    -0.06860
C1129       C  0.80296850  0.31562653  0.08572399    -0.18090
C1130       C  0.78596140  0.30727664  0.04470704     0.10290
S1131       S  0.84921819  0.20316133  0.11522709    -0.33060
S1132       S  0.74456724  0.34265947  0.02864211    -0.33070
H1133       H  0.71941205  0.31014428  0.00940768     0.28300
H1134       H  0.84614743  0.22355362  0.15516496     0.28300
H1135       H  0.83461814  0.21357757  0.02653387     0.18890
H1136       H  0.79302318  0.34572124  0.09856536     0.18900
C1137       C  0.79581927  0.27917227  0.93349149    -0.06930
C1138       C  0.82490963  0.25732752  0.90834950    -0.18060
C1139       C  0.83728317  0.27177965  0.86655575     0.10260
C1140       C  0.83282527  0.31626571  0.85201234    -0.06860
C1141       C  0.80291071  0.33760120  0.87763787    -0.18090
C1142       C  0.78181969  0.31845245  0.91403795     0.10290
S1143       S  0.85070676  0.22796657  0.83242020    -0.33060
S1144       S  0.73227299  0.34081288  0.92850991    -0.33070
H1145       H  0.72978422  0.37270261  0.89621223     0.28300
H1146       H  0.82871143  0.24477923  0.79704438     0.28300
H1147       H  0.83524123  0.22621093  0.91946662     0.18890
H1148       H  0.79182640  0.36825224  0.86672414     0.18900
C1149       C  0.21482332  0.69982334  0.02089569    -0.06930
C1150       C  0.23963675  0.68884042  0.05695586    -0.18060
C1151       C  0.22195628  0.67457269  0.09655360     0.10260
C1152       C  0.18040361  0.65498315  0.09806862    -0.06860
C1153       C  0.15483910  0.66743161  0.06289204    -0.18090
C1154       C  0.17063221  0.69547483  0.02930305     0.10290
S1155       S  0.25518153  0.68251112  0.14297768    -0.33060
S1156       S  0.13648116  0.73939511  0.01616135    -0.33070
H1157       H  0.16912832  0.76998328  0.00825959     0.28300
H1158       H  0.22210424  0.68883437  0.17158810     0.28300
H1159       H  0.27320713  0.69278967  0.05596521     0.18890
H1160       H  0.12120148  0.66193515  0.06562508     0.18900
C1161       C  0.21835080  0.70333397  0.93373779    -0.06930
C1162       C  0.17885115  0.71601318  0.91935017    -0.18060
C1163       C  0.16268127  0.70675462  0.87820598     0.10260
C1164       C  0.18568012  0.68034094  0.84853178    -0.06860
C1165       C  0.22897496  0.67918737  0.85894861    -0.18090
C1166       C  0.24410016  0.68519705  0.90152997     0.10290
S1167       S  0.11573730  0.73716139  0.86707015    -0.33060
S1168       S  0.29549189  0.66548772  0.91338530    -0.33070
H1169       H  0.28179156  0.64502885  0.95141121     0.28300
H1170       H  0.09047814  0.70544338  0.84842112     0.28300
H1171       H  0.16094540  0.73667281  0.93905100     0.18890
H1172       H  0.25125608  0.67130052  0.83454232     0.18900
C1173       C  0.29128722  0.76322691  0.01966105    -0.06930
C1174       C  0.27142685  0.79304637  0.04480577    -0.18060
C1175       C  0.29034771  0.81341510  0.08097443     0.10260
C1176       C  0.33255275  0.80137485  0.09732479    -0.06860
C1177       C  0.35237820  0.77315457  0.06836679    -0.18090
C1178       C  0.33189889  0.75104897  0.03417563     0.10290
S1179       S  0.25821811  0.85960339  0.09294388    -0.33060
S1180       S  0.35814227  0.70374913  0.01521815    -0.33070
H1181       H  0.32145642  0.68315922  0.00004271     0.28300
H1182       H  0.25139227  0.87350241  0.05041011     0.28300
H1183       H  0.24032184  0.80226077  0.03421558     0.18890
H1184       H  0.38583953  0.76943863  0.07042762     0.18900
C1185       C  0.32482736  0.80535144  0.85542197    -0.06930
C1186       C  0.28066761  0.79972477  0.86067978    -0.18060
C1187       C  0.26172446  0.78917102  0.90112838     0.10260
C1188       C  0.28542367  0.77015005  0.93518215    -0.06860
C1189       C  0.32811596  0.76947241  0.92811840    -0.18090
C1190       C  0.34860025  0.78685345  0.89200288     0.10290
S1191       S  0.21035327  0.81047148  0.90950531    -0.33060
S1192       S  0.40486114  0.78040893  0.90365153    -0.33070
H1193       H  0.42823458  0.79405144  0.86924122     0.28300
H1194       H  0.21281729  0.80966128  0.95438405     0.28300
H1195       H  0.26003295  0.80554073  0.83393583     0.18890
H1196       H  0.34688982  0.75570602  0.95276239     0.18900
C1197       C  0.24387333  0.43835742  0.19592013    -0.06930
C1198       C  0.22037711  0.41574479  0.22634938    -0.18060
C1199       C  0.20508841  0.37291942  0.22024422     0.10260
C1200       C  0.20897703  0.35112395  0.17953889    -0.06860
C1201       C  0.23456543  0.37550753  0.14978694    -0.18090
C1202       C  0.25312078  0.41644775  0.15788260     0.10290
S1203       S  0.19139529  0.34797662  0.27014961    -0.33060
S1204       S  0.29109695  0.43620853  0.11914851    -0.33070
H1205       H  0.31480102  0.46257779  0.14716571     0.28300
H1206       H  0.17477622  0.38445857  0.29019975     0.28300
H1207       H  0.21722437  0.43079071  0.25721939     0.18890
H1208       H  0.23923277  0.36458377  0.11769019     0.18900
C1209       C  0.20067421  0.60040554  0.15738848    -0.06930
C1210       C  0.20557906  0.59315203  0.20155951    -0.18060
C1211       C  0.21916655  0.55297735  0.21880232     0.10260
C1212       C  0.23802730  0.52186384  0.19200642    -0.06860
C1213       C  0.24020679  0.53256001  0.14866208    -0.18090
C1214       C  0.22570982  0.57193060  0.13166639     0.10290
S1215       S  0.21425396  0.54500642  0.27562771    -0.33060
S1216       S  0.25143431  0.58450488  0.08091750    -0.33070
H1217       H  0.21844431  0.59929817  0.05582824     0.28300
H1218       H  0.20464038  0.50060098  0.27244935     0.28300
H1219       H  0.19832580  0.61891404  0.22301143     0.18890
H1220       H  0.25770117  0.51227670  0.12791499     0.18900
C1221       C  0.24465394  0.21368259  0.51932567    -0.06930
C1222       C  0.22854817  0.24039556  0.55234081    -0.18060
C1223       C  0.21445107  0.22359748  0.59267876     0.10260
C1224       C  0.20454049  0.17910599  0.59714779    -0.06860
C1225       C  0.23024682  0.15395920  0.57025059    -0.18090
C1226       C  0.24874496  0.16983680  0.53182367     0.10290
S1227       S  0.22313243  0.25650563  0.63959610    -0.33060
S1228       S  0.27930660  0.13265979  0.50161848    -0.33070
H1229       H  0.31033773  0.16387255  0.49011835     0.28300
H1230       H  0.21625017  0.22241480  0.66918434     0.28300
H1231       H  0.22564635  0.27430504  0.54791073     0.18890
H1232       H  0.23938105  0.12228996  0.58049838     0.18900
C1233       C  0.24138220  0.20849886  0.43333660    -0.06930
C1234       C  0.26700622  0.18433902  0.40563561    -0.18060
C1235       C  0.25208210  0.16765922  0.36561798     0.10260
C1236       C  0.20831204  0.16615193  0.35541033    -0.06860
C1237       C  0.18673634  0.19898188  0.37765559    -0.18090
C1238       C  0.20127060  0.21792706  0.41635864     0.10290
S1239       S  0.29113551  0.16152661  0.32483202    -0.33060
S1240       S  0.16741821  0.25657330  0.44016877    -0.33070
H1241       H  0.17802348  0.24749978  0.48260750     0.28300
H1242       H  0.26441411  0.17318136  0.29089426     0.28300
H1243       H  0.29982304  0.18078431  0.41356041     0.18890
H1244       H  0.15970256  0.21373645  0.36398688     0.18900
C1245       C  0.57037933  0.20592802  0.19954523    -0.06930
C1246       C  0.59553083  0.23008210  0.17135972    -0.18060
C1247       C  0.63584250  0.21812699  0.15751806     0.10260
C1248       C  0.65490822  0.17737286  0.17105802    -0.06860
C1249       C  0.63287833  0.15949883  0.20727211    -0.18090
C1250       C  0.59090012  0.17037247  0.21895043     0.10290
S1251       S  0.65891604  0.26189736  0.12587762    -0.33060
S1252       S  0.56514234  0.13686204  0.25887402    -0.33070
H1253       H  0.52399281  0.14459844  0.24459986     0.28300
H1254       H  0.64888122  0.29526982  0.15423233     0.28300
H1255       H  0.58403070  0.26062712  0.16042837     0.18890
H1256       H  0.64797193  0.13611748  0.22746139     0.18900
C1257       C  0.40780494  0.18462756  0.15600208    -0.06930
C1258       C  0.43969717  0.20716263  0.13255460    -0.18060
C1259       C  0.47781229  0.22222470  0.15094404     0.10260
C1260       C  0.48548384  0.21611783  0.19529769    -0.06860
C1261       C  0.44888330  0.20486043  0.21986566    -0.18090
C1262       C  0.40953434  0.19255874  0.20029662     0.10290
S1263       S  0.51484737  0.24993300  0.11619523    -0.33060
S1264       S  0.36253539  0.18878807  0.23202537    -0.33070
H1265       H  0.33455956  0.19277688  0.19723187     0.28300
H1266       H  0.49253569  0.24552551  0.07745794     0.28300
H1267       H  0.43564405  0.21034680  0.09850250     0.18890
H1268       H  0.45066800  0.20421414  0.25431180     0.18900
C1269       C  0.06866833  0.24870500  0.20318210    -0.06930
C1270       C  0.09823094  0.26241240  0.23497377    -0.18060
C1271       C  0.14161736  0.27131254  0.22573125     0.10260
C1272       C  0.15581752  0.27381814  0.18255951    -0.06860
C1273       C  0.12988478  0.24780554  0.15555817    -0.18090
C1274       C  0.08630311  0.24141709  0.16229315     0.10290
S1275       S  0.17695426  0.25218160  0.26689092    -0.33060
S1276       S  0.05511353  0.22595537  0.11665933    -0.33070
H1277       H  0.08729678  0.22411927  0.08624674     0.28300
H1278       H  0.21379091  0.25887390  0.24289512     0.28300
H1279       H  0.08844397  0.26285219  0.26806466     0.18890
H1280       H  0.14266740  0.23568878  0.12646004     0.18900
C1281       C  0.97254047  0.19365640  0.26697373    -0.06930
C1282       C  0.94849625  0.16104106  0.24637015    -0.18060
C1283       C  0.90499958  0.15296805  0.25496738     0.10260
C1284       C  0.88621036  0.16785003  0.29371086    -0.06860
C1285       C  0.90842663  0.20422595  0.31120554    -0.18090
C1286       C  0.94911889  0.21890731  0.29661299     0.10290
S1287       S  0.87428698  0.12461355  0.21495022    -0.33060
S1288       S  0.96819766  0.26967699  0.31869068    -0.33070
H1289       H  0.00784723  0.27087409  0.29921199     0.28300
H1290       H  0.90670757  0.11833051  0.18547896     0.28300
H1291       H  0.96333584  0.14276535  0.22171539     0.18890
H1292       H  0.89526945  0.22014799  0.33858151     0.18900
C1293       C  0.98468017  0.25242540  0.19362289    -0.06930
C1294       C  0.96666245  0.28965485  0.21052367    -0.18060
C1295       C  0.92728375  0.30530459  0.19615826     0.10260
C1296       C  0.90964489  0.29315551  0.15512069    -0.06860
C1297       C  0.92920872  0.25596312  0.13823783    -0.18090
C1298       C  0.96180669  0.23311780  0.15909225     0.10290
S1299       S  0.89924268  0.33298921  0.23690527    -0.33060
S1300       S  0.96945052  0.17862177  0.14024160    -0.33070
H1301       H  0.00402043  0.16861271  0.16625973     0.28300
H1302       H  0.86274606  0.30825293  0.22777930     0.28300
H1303       H  0.98136637  0.30451650  0.23809913     0.18890
H1304       H  0.92014713  0.24408869  0.10726862     0.18900
C1305       C  0.05807665  0.18070525  0.26961014    -0.06930
C1306       C  0.09018043  0.16492241  0.24249448    -0.18060
C1307       C  0.13229057  0.15609973  0.25683097     0.10260
C1308       C  0.14238502  0.15121838  0.30192536    -0.06860
C1309       C  0.10896595  0.16662232  0.32765617    -0.18090
C1310       C  0.06954879  0.18149902  0.31329348     0.10290
S1311       S  0.17125006  0.16164053  0.21472229    -0.33060
S1312       S  0.03545832  0.20177465  0.35355992    -0.33070
H1313       H  0.06649896  0.21363467  0.38383259     0.28300
H1314       H  0.20562698  0.16843147  0.24241749     0.28300
H1315       H  0.08405092  0.16442600  0.20843699     0.18890
H1316       H  0.11261908  0.16776675  0.36146136     0.18900
C1317       C  0.31642856  0.93986481  0.18981337    -0.06930
C1318       C  0.28821878  0.90597651  0.17588190    -0.18060
C1319       C  0.30077433  0.86205658  0.17307724     0.10260
C1320       C  0.34298829  0.85379914  0.16887696    -0.06860
C1321       C  0.36905185  0.88358451  0.19189537    -0.18090
C1322       C  0.35744917  0.92635944  0.20044819     0.10290
S1323       S  0.26429081  0.81722570  0.18341913    -0.33060
S1324       S  0.39623960  0.96129596  0.22575932    -0.33070
H1325       H  0.42148480  0.92847866  0.24275334     0.28300
H1326       H  0.29398607  0.78424429  0.18211102     0.28300
H1327       H  0.25563676  0.91287558  0.17017131     0.18890
H1328       H  0.39978676  0.87400143  0.20142732     0.18900
C1329       C  0.25036486  0.02413860  0.25384144    -0.06930
C1330       C  0.26583104  0.03865274  0.29345696    -0.18060
C1331       C  0.24718463  0.07265833  0.31665788     0.10260
C1332       C  0.21434057  0.09910992  0.29800899    -0.06860
C1333       C  0.19846161  0.08114897  0.25918380    -0.18090
C1334       C  0.21578966  0.04651048  0.23677672     0.10290
S1335       S  0.25810986  0.07088942  0.37368585    -0.33060
S1336       S  0.18703687  0.03019013  0.18945768    -0.33070
H1337       H  0.21494346  0.99952346  0.17517465     0.28300
H1338       H  0.29853778  0.05363413  0.37108092     0.28300
H1339       H  0.29001807  0.01997610  0.30873788     0.18890
H1340       H  0.16675229  0.08714361  0.25000904     0.18900
C1341       C  0.31856196  0.02753140  0.18973888    -0.06930
C1342       C  0.35088754  0.04847998  0.21303775    -0.18060
C1343       C  0.37304171  0.08631884  0.19768688     0.10260
C1344       C  0.35578868  0.11207199  0.16237800    -0.06860
C1345       C  0.31469207  0.09663214  0.15091992    -0.18090
C1346       C  0.30151562  0.05275805  0.15632002     0.10290
S1347       S  0.41770360  0.09813008  0.23266061    -0.33060
S1348       S  0.26645225  0.03085318  0.11614031    -0.33070
H1349       H  0.27697196  0.98729860  0.12256539     0.28300
H1350       H  0.44528647  0.12283114  0.20801738     0.28300
H1351       H  0.36005158  0.03438594  0.24335270     0.18890
H1352       H  0.29277270  0.11729826  0.13497271     0.18900
C1353       C  0.21146552  0.85476052  0.27227258    -0.06930
C1354       C  0.25434792  0.86398780  0.27942032    -0.18060
C1355       C  0.27232772  0.90615759  0.27226429     0.10260
C1356       C  0.24874976  0.93857225  0.25022444    -0.06860
C1357       C  0.20948070  0.92437398  0.23358014    -0.18090
C1358       C  0.19406269  0.88160687  0.23972158     0.10290
S1359       S  0.32348855  0.91652812  0.29575295    -0.33060
S1360       S  0.16603410  0.85947132  0.19387697    -0.33070
H1361       H  0.17579451  0.81596269  0.20206475     0.28300
H1362       H  0.32565492  0.96135451  0.28889318     0.28300
H1363       H  0.27366325  0.83857598  0.29199424     0.18890
H1364       H  0.19296791  0.94413568  0.21100681     0.18900
C1365       C  0.22753063  0.26502343  0.94175196    -0.06930
C1366       C  0.19370689  0.24399009  0.92062377    -0.18060
C1367       C  0.17997520  0.25496777  0.87828168     0.10260
C1368       C  0.19725774  0.29262308  0.85507969    -0.06860
C1369       C  0.23334315  0.31093175  0.87738531    -0.18090
C1370       C  0.24849264  0.29765735  0.91800886     0.10290
S1371       S  0.14036504  0.21776841  0.85755671    -0.33060
S1372       S  0.29308013  0.32740381  0.94001169    -0.33070
H1373       H  0.27830568  0.32726839  0.98229102     0.28300
H1374       H  0.12319510  0.20387273  0.89690475     0.28300
H1375       H  0.18073028  0.21504404  0.93574932     0.18890
H1376       H  0.24625682  0.34198761  0.86944064     0.18900
C1377       C  0.34707536  0.17166737  0.09761881    -0.06930
C1378       C  0.32209077  0.14472388  0.06964881    -0.18060
C1379       C  0.29825534  0.15996543  0.03465267     0.10260
C1380       C  0.30246097  0.20339349  0.02132979    -0.06860
C1381       C  0.33051771  0.22966996  0.04516698    -0.18090
C1382       C  0.34748451  0.21687555  0.08526862     0.10290
S1383       S  0.26624952  0.12093670  0.00564063    -0.33060
S1384       S  0.36550143  0.26108190  0.11917234    -0.33070
H1385       H  0.35532404  0.29609310  0.09223009     0.28300
H1386       H  0.23581566  0.15024818  0.99166084     0.28300
H1387       H  0.32199915  0.10999084  0.07350936     0.18890
H1388       H  0.33805717  0.26176657  0.03275656     0.18900
C1389       C  0.22606539  0.26431314  0.02874882    -0.06930
C1390       C  0.25132946  0.27795845  0.06411152    -0.18060
C1391       C  0.23549865  0.28550878  0.10598641     0.10260
C1392       C  0.19353940  0.29852043  0.11240819    -0.06860
C1393       C  0.16758683  0.29113126  0.07540405    -0.18090
C1394       C  0.18199147  0.26924939  0.03754186     0.10290
S1395       S  0.27074798  0.27903320  0.15041653    -0.33060
S1396       S  0.14258014  0.24031238  0.00686538    -0.33070
H1397       H  0.10818984  0.26495892  0.01941748     0.28300
H1398       H  0.24101992  0.25566646  0.17495840     0.28300
H1399       H  0.28361987  0.28563763  0.05994401     0.18890
H1400       H  0.13434151  0.29688221  0.07840135     0.18900
C1401       C  0.30032589  0.20467604  0.93646470    -0.06930
C1402       C  0.27500239  0.19429910  0.90015228    -0.18060
C1403       C  0.29117866  0.18469386  0.85897239     0.10260
C1404       C  0.33286493  0.16979254  0.85402150    -0.06860
C1405       C  0.35895804  0.18081044  0.88981368    -0.18090
C1406       C  0.34412562  0.19806343  0.92896723     0.10290
S1407       S  0.25719992  0.19474921  0.81395103    -0.33060
S1408       S  0.38483524  0.21203653  0.96667151    -0.33070
H1409       H  0.37287726  0.25559505  0.96754750     0.28300
H1410       H  0.29014167  0.20426091  0.78518282     0.28300
H1411       H  0.24188263  0.19070967  0.90318165     0.18890
H1412       H  0.39239121  0.18028099  0.88708669     0.18900
C1413       C  0.60490953  0.65770227  0.65221603    -0.06930
C1414       C  0.60547625  0.70311295  0.65789498    -0.18060
C1415       C  0.56890132  0.72638998  0.66859510     0.10260
C1416       C  0.53175780  0.70461079  0.68420928    -0.06860
C1417       C  0.53353696  0.65887207  0.68581467    -0.18090
C1418       C  0.56812665  0.63531143  0.66950817     0.10290
S1419       S  0.56844950  0.78265160  0.65271747    -0.33060
S1420       S  0.55945034  0.57702192  0.66895543    -0.33070
H1421       H  0.59582407  0.56367808  0.64890042     0.28300
H1422       H  0.61230782  0.78982855  0.65231062     0.28300
H1423       H  0.63351184  0.72134560  0.64893708     0.18890
H1424       H  0.50641727  0.64087931  0.69806106     0.18900
C1425       C  0.71171643  0.52452960  0.68689799    -0.06930
C1426       C  0.68895167  0.55379880  0.71210923    -0.18060
C1427       C  0.66809855  0.59092125  0.69450522     0.10260
C1428       C  0.66820739  0.60042806  0.64913532    -0.06860
C1429       C  0.69809219  0.57504070  0.62715691    -0.18090
C1430       C  0.71561711  0.53634183  0.64323631     0.10290
S1431       S  0.64854259  0.62763815  0.73363103    -0.33060
S1432       S  0.74372979  0.50440119  0.60514228    -0.33070
H1433       H  0.77270690  0.48667758  0.63369011     0.28300
H1434       H  0.66662192  0.66447497  0.71335297     0.28300
H1435       H  0.68761393  0.54793158  0.74629162     0.18890
H1436       H  0.70669975  0.58385000  0.59488426     0.18900
C1437       C  0.66982232  0.66982342  0.59637824    -0.06930
C1438       C  0.71432548  0.66622143  0.59729501    -0.18060
C1439       C  0.74008281  0.67536061  0.56096339     0.10260
C1440       C  0.72170589  0.69045903  0.52198645    -0.06860
C1441       C  0.67884308  0.69888420  0.52287847    -0.18090
C1442       C  0.65528347  0.69524968  0.56065148     0.10290
S1443       S  0.79509731  0.66344000  0.56676308    -0.33060
S1444       S  0.61432307  0.73431481  0.56464635    -0.33070
H1445       H  0.60466436  0.73726525  0.52075558     0.28300
H1446       H  0.80664613  0.66883237  0.52394766     0.28300
H1447       H  0.72941142  0.65346588  0.62564662     0.18890
H1448       H  0.66523479  0.71470255  0.49517778     0.18900
C1449       C  0.40095452  0.30741140  0.65701801    -0.06930
C1450       C  0.39504340  0.26278623  0.66742833    -0.18060
C1451       C  0.43072050  0.23646678  0.67753506     0.10260
C1452       C  0.46997239  0.25646442  0.69161266    -0.06860
C1453       C  0.47269845  0.30094137  0.68697696    -0.18090
C1454       C  0.44523583  0.32089280  0.65942857     0.10290
S1455       S  0.42759971  0.18206148  0.65763776    -0.33060
S1456       S  0.47428871  0.35307270  0.62081841    -0.33070
H1457       H  0.44370609  0.34976651  0.58905364     0.28300
H1458       H  0.47121324  0.17840129  0.65241008     0.28300
H1459       H  0.36505785  0.24725819  0.65984114     0.18890
H1460       H  0.50176530  0.31816958  0.69503805     0.18900
C1461       C  0.32430684  0.36016478  0.65770559    -0.06930
C1462       C  0.30531449  0.39365252  0.63220180    -0.18060
C1463       C  0.28877937  0.43195153  0.64751505     0.10260
C1464       C  0.28813706  0.44077710  0.69181316    -0.06860
C1465       C  0.30377766  0.40605138  0.71766727    -0.18090
C1466       C  0.31586855  0.36480566  0.70155241     0.10290
S1467       S  0.27656133  0.46942260  0.60551227    -0.33060
S1468       S  0.31681043  0.31882537  0.73739557    -0.33070
H1469       H  0.31623817  0.28784399  0.70468107     0.28300
H1470       H  0.31358026  0.49409344  0.61293474     0.28300
H1471       H  0.31013918  0.39458473  0.59817897     0.18890
H1472       H  0.31032586  0.41130960  0.75042573     0.18900
C1473       C  0.31261408  0.28357357  0.50907275    -0.06930
C1474       C  0.35270939  0.27111770  0.52352136    -0.18060
C1475       C  0.37277618  0.28907998  0.56119109     0.10260
C1476       C  0.35009381  0.31712437  0.59020614    -0.06860
C1477       C  0.30719584  0.32038511  0.57666953    -0.18090
C1478       C  0.29327601  0.31426768  0.53452664     0.10290
S1479       S  0.42465421  0.26869088  0.57122513    -0.33060
S1480       S  0.25143618  0.34829788  0.51580142    -0.33070
H1481       H  0.23111655  0.31694861  0.49057048     0.28300
H1482       H  0.43434165  0.25787896  0.52883672     0.28300
H1483       H  0.36871935  0.24724557  0.50494731     0.18890
H1484       H  0.28236575  0.32859797  0.59804680     0.18900
C1485       C  0.71596892  0.36121274  0.29460030    -0.06930
C1486       C  0.69170846  0.39532532  0.27658274    -0.18060
C1487       C  0.70723093  0.43267717  0.25702828     0.10260
C1488       C  0.75047622  0.44169472  0.25646400    -0.06860
C1489       C  0.77662841  0.40761201  0.27167791    -0.18090
C1490       C  0.75957722  0.36621386  0.28558662     0.10290
S1491       S  0.66966677  0.46501920  0.22858564    -0.33060
S1492       S  0.79017399  0.31973862  0.27313415    -0.33070
H1493       H  0.75607989  0.28977448  0.27421993     0.28300
H1494       H  0.63891033  0.43220337  0.22148483     0.28300
H1495       H  0.65828688  0.39342455  0.27698491     0.18890
H1496       H  0.81033551  0.41112669  0.26788249     0.18900
C1497       C  0.70996407  0.29640254  0.36307451    -0.06930
C1498       C  0.75376622  0.29596390  0.37172143    -0.18060
C1499       C  0.77148901  0.28284744  0.41133268     0.10260
C1500       C  0.74544541  0.26656295  0.44506441    -0.06860
C1501       C  0.70225521  0.26638082  0.43761027    -0.18090
C1502       C  0.68414077  0.28036050  0.39881933     0.10290
S1503       S  0.82752889  0.29301855  0.41688679    -0.33060
S1504       S  0.62713082  0.27921173  0.40294630    -0.33070
H1505       H  0.61565627  0.30315828  0.36768573     0.28300
H1506       H  0.83181010  0.28189614  0.46015543     0.28300
H1507       H  0.77493605  0.31250902  0.35085437     0.18890
H1508       H  0.68178185  0.25435253  0.46293659     0.18900
C1509       C  0.65716646  0.29978597  0.29641288    -0.06930
C1510       C  0.64045531  0.31635180  0.25740144    -0.18060
C1511       C  0.59935901  0.30598309  0.24330695     0.10260
C1512       C  0.57635696  0.27161215  0.26323477    -0.06860
C1513       C  0.59881019  0.24589639  0.29252993    -0.18090
C1514       C  0.64008672  0.25755459  0.30594405     0.10290
S1515       S  0.57818235  0.34107811  0.20233132    -0.33060
S1516       S  0.67187111  0.21319920  0.32329443    -0.33070
H1517       H  0.70940637  0.23078607  0.30605520     0.28300
H1518       H  0.54685510  0.31288078  0.18668031     0.28300
H1519       H  0.65835635  0.33786022  0.23691730     0.18890
H1520       H  0.58553230  0.21501751  0.30280636     0.18900
C1521       C  0.39647952  0.66118831  0.31254106    -0.06930
C1522       C  0.42227177  0.68889198  0.33770454    -0.18060
C1523       C  0.45956011  0.70992496  0.32199319     0.10260
C1524       C  0.47716580  0.69823267  0.28158101    -0.06860
C1525       C  0.45186872  0.66994964  0.25726812    -0.18090
C1526       C  0.41017363  0.65967362  0.26885694     0.10290
S1527       S  0.47731574  0.75495268  0.35356080    -0.33060
S1528       S  0.37486812  0.66511196  0.22433013    -0.33070
H1529       H  0.34458998  0.68740176  0.24748394     0.28300
H1530       H  0.49205908  0.77930207  0.31870540     0.28300
H1531       H  0.41210620  0.69647287  0.36959947     0.18890
H1532       H  0.46154948  0.66247382  0.22526975     0.18900
C1533       C  0.27674253  0.68735076  0.42458783    -0.06930
C1534       C  0.31013030  0.71382586  0.40925441    -0.18060
C1535       C  0.32927049  0.70688950  0.36908261     0.10260
C1536       C  0.31850516  0.67008128  0.34326939    -0.06860
C1537       C  0.27738986  0.65369047  0.35275837    -0.18090
C1538       C  0.26028570  0.65664246  0.39487246     0.10290
S1539       S  0.35298853  0.75476346  0.34569734    -0.33060
S1540       S  0.22252872  0.61585552  0.41215893    -0.33070
H1541       H  0.21469914  0.59725748  0.37189802     0.28300
H1542       H  0.35395369  0.73676559  0.30475904     0.28300
H1543       H  0.31916995  0.74262123  0.42690032     0.18890
H1544       H  0.26291685  0.63083854  0.33096468     0.18900
C1545       C  0.32149059  0.52882978  0.24168067    -0.06930
C1546       C  0.36020345  0.52978618  0.26240578    -0.18060
C1547       C  0.37181148  0.56465850  0.28873927     0.10260
C1548       C  0.34444257  0.60084133  0.29441355    -0.06860
C1549       C  0.31025663  0.60249931  0.26565880    -0.18090
C1550       C  0.30590860  0.57063495  0.23362559     0.10290
S1551       S  0.42137610  0.55951633  0.31481751    -0.33060
S1552       S  0.31243833  0.59220844  0.18033707    -0.33070
H1553       H  0.32698910  0.55369306  0.16234023     0.28300
H1554       H  0.41877193  0.51411926  0.31997273     0.28300
H1555       H  0.38007698  0.50189202  0.26071473     0.18890
H1556       H  0.29312422  0.63221670  0.26237270     0.18900
C1557       C  0.72729324  0.68377790  0.43866183    -0.06930
C1558       C  0.71624216  0.70878662  0.40234569    -0.18060
C1559       C  0.70816632  0.68943141  0.36200233     0.10260
C1560       C  0.69375414  0.64490804  0.35952490    -0.06860
C1561       C  0.70211143  0.62030287  0.39742066    -0.18090
C1562       C  0.72489599  0.63850951  0.43277575     0.10290
S1563       S  0.71697985  0.72401939  0.31570643    -0.33060
S1564       S  0.76157258  0.60482828  0.46110601    -0.33070
H1565       H  0.79498581  0.63529388  0.45994112     0.28300
H1566       H  0.72440562  0.69034702  0.28706723     0.28300
H1567       H  0.71781995  0.74371040  0.40389318     0.18890
H1568       H  0.69797676  0.58555444  0.39655875     0.18900
C1569       C  0.64121448  0.65423044  0.29157588    -0.06930
C1570       C  0.62467887  0.68974949  0.31475393    -0.18060
C1571       C  0.58729831  0.71168180  0.30523470     0.10260
C1572       C  0.56066703  0.69849361  0.27118091    -0.06860
C1573       C  0.57603005  0.66485348  0.24606852    -0.18090
C1574       C  0.61335519  0.64166240  0.25612556     0.10290
S1575       S  0.57474586  0.75453832  0.34098567    -0.33060
S1576       S  0.61636106  0.59118014  0.22746034    -0.33070
H1577       H  0.57311390  0.58470558  0.21919217     0.28300
H1578       H  0.61641589  0.76606138  0.35244904     0.28300
H1579       H  0.63625664  0.69723248  0.34594177     0.18890
H1580       H  0.55658389  0.65440749  0.21938231     0.18900
C1581       C  0.71359510  0.60272375  0.28982950    -0.06930
C1582       C  0.70920824  0.59515996  0.24580555    -0.18060
C1583       C  0.72378730  0.55702301  0.22576322     0.10260
C1584       C  0.75066932  0.52751459  0.24836151    -0.06860
C1585       C  0.76570780  0.54302944  0.28761595    -0.18090
C1586       C  0.74912412  0.58003933  0.30766825     0.10290
S1587       S  0.70268604  0.54868443  0.17291641    -0.33060
S1588       S  0.78111326  0.59845505  0.35142569    -0.33070
H1589       H  0.77261666  0.64168295  0.34286616     0.28300
H1590       H  0.71575488  0.50623218  0.16943309     0.28300
H1591       H  0.69256810  0.61854761  0.22683633     0.18890
H1592       H  0.79041595  0.52540350  0.30363260     0.18900
C1593       C  0.35822132  0.37319444  0.30169981    -0.06930
C1594       C  0.35568653  0.41599377  0.31712235    -0.18060
C1595       C  0.32880398  0.44615447  0.29863466     0.10260
C1596       C  0.31659398  0.44372955  0.25537717    -0.06860
C1597       C  0.32371337  0.40283609  0.23629764    -0.18090
C1598       C  0.33963389  0.36682544  0.26022301     0.10290
S1599       S  0.30697748  0.48447549  0.33377070    -0.33060
S1600       S  0.34100772  0.31546248  0.23347868    -0.33070
H1601       H  0.32023565  0.29212073  0.26610533     0.28300
H1602       H  0.26696341  0.48170196  0.31477447     0.28300
H1603       H  0.37099177  0.42578830  0.34640304     0.18890
H1604       H  0.31703484  0.39804955  0.20294343     0.18900
C1605       C  0.34828531  0.29947219  0.34509045    -0.06930
C1606       C  0.30673151  0.31156008  0.35429875    -0.18060
C1607       C  0.28701848  0.30078912  0.39396295     0.10260
C1608       C  0.30809323  0.27500557  0.42520606    -0.06860
C1609       C  0.34473486  0.25514523  0.41137754    -0.18090
C1610       C  0.36111477  0.26296409  0.37011385     0.10290
S1611       S  0.23809554  0.32598481  0.40537883    -0.33060
S1612       S  0.38112550  0.21532177  0.34520690    -0.33070
H1613       H  0.37940747  0.23371184  0.30412001     0.28300
H1614       H  0.22877914  0.33966645  0.36343879     0.28300
H1615       H  0.29175201  0.33444864  0.33316458     0.18890
H1616       H  0.35779630  0.22948061  0.43080671     0.18900
C1617       C  0.42100859  0.31746541  0.30453458    -0.06930
C1618       C  0.44494623  0.28514167  0.32553793    -0.18060
C1619       C  0.48005193  0.26539742  0.30812722     0.10260
C1620       C  0.49488195  0.27786635  0.26751704    -0.06860
C1621       C  0.47433806  0.31223712  0.24696242    -0.18090
C1622       C  0.44061844  0.33433601  0.26614631     0.10290
S1623       S  0.50388902  0.22352400  0.33982381    -0.33060
S1624       S  0.43329586  0.38901952  0.24649024    -0.33070
H1625       H  0.45019429  0.38353064  0.20547569     0.28300
H1626       H  0.50997437  0.19585571  0.30518922     0.28300
H1627       H  0.43803157  0.27636963  0.35816053     0.18890
H1628       H  0.48654007  0.32407370  0.21690331     0.18900
C1629       C  0.69243542  0.34912090  0.67127634    -0.06930
C1630       C  0.66854657  0.37520490  0.69941448    -0.18060
C1631       C  0.67990038  0.41891971  0.70888387     0.10260
C1632       C  0.71753863  0.43805692  0.69284503    -0.06860
C1633       C  0.74505270  0.40904530  0.67296975    -0.18090
C1634       C  0.73460873  0.36433587  0.66807726     0.10290
S1635       S  0.64453447  0.44911864  0.74103927    -0.33060
S1636       S  0.77617752  0.32579581  0.67288313    -0.33070
H1637       H  0.80854260  0.35437530  0.65894155     0.28300
H1638       H  0.63689125  0.47933704  0.70814007     0.28300
H1639       H  0.63806565  0.36426820  0.71031104     0.18890
H1640       H  0.77649240  0.42006099  0.66518536     0.18900
C1641       C  0.63006781  0.29200328  0.65126056    -0.06930
C1642       C  0.62503345  0.28493190  0.69582478    -0.18060
C1643       C  0.58581768  0.27346355  0.71430444     0.10260
C1644       C  0.55247292  0.25600457  0.68882928    -0.06860
C1645       C  0.55786609  0.25918203  0.64432156    -0.18090
C1646       C  0.59451290  0.27789120  0.62533271     0.10290
S1647       S  0.57920987  0.28789098  0.76957439    -0.33060
S1648       S  0.59023850  0.28464738  0.56800192    -0.33070
H1649       H  0.63059368  0.27198659  0.55792852     0.28300
H1650       H  0.53514424  0.29004077  0.76805660     0.28300
H1651       H  0.65078468  0.29252890  0.71742001     0.18890
H1652       H  0.53236172  0.24785157  0.62381529     0.18900
C1653       C  0.74211877  0.26140904  0.52906425    -0.06930
C1654       C  0.71471258  0.23462908  0.55377748    -0.18060
C1655       C  0.69749357  0.24860699  0.59319000     0.10260
C1656       C  0.70301822  0.29261913  0.60665902    -0.06860
C1657       C  0.73668239  0.31538946  0.58517597    -0.18090
C1658       C  0.75557382  0.30073628  0.54769263     0.10290
S1659       S  0.67123264  0.20765392  0.62501369    -0.33060
S1660       S  0.79915108  0.33264378  0.52682164    -0.33070
H1661       H  0.78205402  0.33575626  0.48553962     0.28300
H1662       H  0.68515774  0.22543428  0.66405592     0.28300
H1663       H  0.70753782  0.20202460  0.54288088     0.18890
H1664       H  0.74443042  0.34860873  0.59281269     0.18900
C1665       C  0.60858901  0.60597086  0.49237018    -0.06930
C1666       C  0.58035467  0.63165494  0.51418207    -0.18060
C1667       C  0.58221322  0.63610783  0.55896166     0.10260
C1668       C  0.61372313  0.61410817  0.58388321    -0.06860
C1669       C  0.63370881  0.58174265  0.56121693    -0.18090
C1670       C  0.63783435  0.58342695  0.51703690     0.10290
S1671       S  0.54063838  0.66669043  0.58160227    -0.33060
S1672       S  0.68136420  0.55721851  0.49332567    -0.33070
H1673       H  0.70360201  0.54844712  0.53110942     0.28300
H1674       H  0.52838905  0.68927302  0.54444409     0.28300
H1675       H  0.55573189  0.64721636  0.49615729     0.18890
H1676       H  0.64689936  0.55479205  0.57744146     0.18900
C1677       C  0.43849030  0.45944098  0.64231073    -0.06930
C1678       C  0.43316011  0.43648925  0.67959057    -0.18060
C1679       C  0.40709195  0.39987261  0.68057498     0.10260
C1680       C  0.38964817  0.38263810  0.64009993    -0.06860
C1681       C  0.39128409  0.41020526  0.60456316    -0.18090
C1682       C  0.41082004  0.45069648  0.60759391     0.10290
S1683       S  0.40569585  0.37756019  0.73484883    -0.33060
S1684       S  0.39722514  0.49116171  0.56867007    -0.33070
H1685       H  0.36001553  0.47008021  0.55454673     0.28300
H1686       H  0.40007235  0.33318804  0.72949182     0.28300
H1687       H  0.45261691  0.44494099  0.70705805     0.18890
H1688       H  0.37542563  0.40102520  0.57526167     0.18900
C1689       C  0.67395603  0.36164365  0.35615281    -0.06930
C1690       C  0.70462955  0.38065723  0.38524372    -0.18060
C1691       C  0.69437992  0.41405546  0.41241504     0.10260
C1692       C  0.65348435  0.42806327  0.40943642    -0.06860
C1693       C  0.63808467  0.42720230  0.36804956    -0.18090
C1694       C  0.63707806  0.38621077  0.34976924     0.10290
S1695       S  0.73625725  0.45319994  0.42253812    -0.33060
S1696       S  0.59030229  0.36966947  0.32084398    -0.33070
H1697       H  0.56301491  0.37725307  0.35491064     0.28300
H1698       H  0.71034742  0.48388966  0.44118619     0.28300
H1699       H  0.73754624  0.37343099  0.38316625     0.18890
H1700       H  0.61527582  0.45028876  0.36034761     0.18900
C1701       C  0.34512648  0.54930227  0.44140933    -0.06930
C1702       C  0.37534727  0.58337438  0.44249945    -0.18060
C1703       C  0.38487948  0.60687302  0.40470917     0.10260
C1704       C  0.35466245  0.60670720  0.37108609    -0.06860
C1705       C  0.31824883  0.57858133  0.37754057    -0.18090
C1706       C  0.31180066  0.55362609  0.41421914     0.10290
S1707       S  0.44013660  0.61656785  0.39543464    -0.33060
S1708       S  0.26540139  0.51930548  0.42096723    -0.33070
H1709       H  0.27657153  0.50387870  0.46192876     0.28300
H1710       H  0.44481580  0.65456212  0.41889659     0.28300
H1711       H  0.39932800  0.58087816  0.46660705     0.18890
H1712       H  0.29456740  0.57432792  0.35309251     0.18900
C1713       C  0.64379476  0.58381915  0.33004576    -0.06930
C1714       C  0.60249109  0.59429067  0.34156754    -0.18060
C1715       C  0.56792719  0.57229623  0.32333157     0.10260
C1716       C  0.57261556  0.53058921  0.30549524    -0.06860
C1717       C  0.61390274  0.51595896  0.30196595    -0.18090
C1718       C  0.64866938  0.54058225  0.31655890     0.10290
S1719       S  0.51993793  0.60160447  0.32061805    -0.33060
S1720       S  0.69013568  0.50920163  0.33821757    -0.33070
H1721       H  0.67717075  0.51674492  0.38027865     0.28300
H1722       H  0.50705227  0.58257666  0.28178388     0.28300
H1723       H  0.59694342  0.62471007  0.35716080     0.18890
H1724       H  0.61840585  0.48240649  0.29403931     0.18900
C1725       C  0.42692883  0.33588972  0.45593728    -0.06930
C1726       C  0.38464902  0.34510370  0.44879974    -0.18060
C1727       C  0.37077369  0.36042694  0.40950851     0.10260
C1728       C  0.39746240  0.35684626  0.37301905    -0.06860
C1729       C  0.44089722  0.35640998  0.38235955    -0.18090
C1730       C  0.45466207  0.33874329  0.42104806     0.10290
S1731       S  0.32679544  0.39645226  0.41445033    -0.33060
S1732       S  0.50598661  0.31533033  0.42220222    -0.33070
H1733       H  0.49619552  0.28540219  0.45515936     0.28300
H1734       H  0.30732518  0.39153681  0.37488230     0.28300
H1735       H  0.36413330  0.34868059  0.47603615     0.18890
H1736       H  0.46382114  0.36091671  0.35715432     0.18900
C1737       C  0.66929189  0.43800053  0.57094962    -0.06930
C1738       C  0.64778364  0.43166984  0.61017079    -0.18060
C1739       C  0.63097951  0.39068892  0.62002923     0.10260
C1740       C  0.65112742  0.35479039  0.60334280    -0.06860
C1741       C  0.66653459  0.36069397  0.56161967    -0.18090
C1742       C  0.68266771  0.40129798  0.54983220     0.10290
S1743       S  0.58290884  0.38435442  0.65011710    -0.33060
S1744       S  0.72376667  0.40597323  0.51162657    -0.33070
H1745       H  0.71355308  0.36682828  0.49076163     0.28300
H1746       H  0.58178195  0.42755840  0.66394773     0.28300
H1747       H  0.63552125  0.45937029  0.62665461     0.18890
H1748       H  0.67368329  0.33324281  0.54201867     0.18900
C1749       C  0.37188551  0.68340540  0.64589213    -0.06930
C1750       C  0.40509063  0.70227019  0.62124225    -0.18060
C1751       C  0.44154302  0.72021251  0.63859845     0.10260
C1752       C  0.44883869  0.71532905  0.68224042    -0.06860
C1753       C  0.41287857  0.70423933  0.70756998    -0.18090
C1754       C  0.37295670  0.69529754  0.68892594     0.10290
S1755       S  0.47610975  0.75029542  0.60338141    -0.33060
S1756       S  0.32604021  0.69835875  0.72089598    -0.33070
H1757       H  0.29798950  0.69785199  0.68594257     0.28300
H1758       H  0.48078059  0.78506426  0.63193022     0.28300
H1759       H  0.40417980  0.70130968  0.58714966     0.18890
H1760       H  0.41506170  0.70098784  0.74155300     0.18900
C1761       C  0.30948041  0.67896148  0.59456370    -0.06930
C1762       C  0.26736793  0.66619595  0.58618041    -0.18060
C1763       C  0.24993480  0.66764385  0.54428219     0.10260
C1764       C  0.27300388  0.68737121  0.50984964    -0.06860
C1765       C  0.31030632  0.70927532  0.52107195    -0.18090
C1766       C  0.32518688  0.71023746  0.56338268     0.10290
S1767       S  0.19833137  0.64331914  0.53782161    -0.33060
S1768       S  0.35165109  0.76146507  0.57533428    -0.33070
H1769       H  0.34426319  0.75924900  0.61958827     0.28300
H1770       H  0.20079040  0.63821256  0.49368759     0.28300
H1771       H  0.24806308  0.65328008  0.61184632     0.18890
H1772       H  0.32455919  0.73154511  0.49817406     0.18900
C1773       C  0.31889829  0.61187835  0.65477754    -0.06930
C1774       C  0.28530054  0.58625343  0.63684086    -0.18060
C1775       C  0.26456903  0.55111186  0.65797640     0.10260
C1776       C  0.28572601  0.52827839  0.69090665    -0.06860
C1777       C  0.32136843  0.54953391  0.70748089    -0.18090
C1778       C  0.33581757  0.59138939  0.69372097     0.10290
S1779       S  0.21234399  0.53690361  0.63848087    -0.33060
S1780       S  0.37765860  0.60931072  0.72954512    -0.33070
H1781       H  0.40765623  0.62210191  0.69944518     0.28300
H1782       H  0.20810110  0.49662731  0.65952647     0.28300
H1783       H  0.27559522  0.59097482  0.60421369     0.18890
H1784       H  0.33882257  0.53292698  0.73211093     0.18900
C1785       C  0.36860433  0.62234738  0.59438695    -0.06930
C1786       C  0.36807382  0.63007631  0.54990725    -0.18060
C1787       C  0.40490428  0.64532873  0.52977257     0.10260
C1788       C  0.44400877  0.63899799  0.54960276    -0.06860
C1789       C  0.44416491  0.62731530  0.59359918    -0.18090
C1790       C  0.40760923  0.60931517  0.61107301     0.10290
S1791       S  0.40066360  0.68040250  0.48399087    -0.33060
S1792       S  0.41317579  0.56210146  0.64410917    -0.33070
H1793       H  0.37298021  0.54491751  0.63449801     0.28300
H1794       H  0.44269443  0.69580784  0.48593262     0.28300
H1795       H  0.33856110  0.63234939  0.53307600     0.18890
H1796       H  0.47335385  0.61809724  0.60881939     0.18900
loop_ 
_geom_bond_atom_site_label_1 
_geom_bond_atom_site_label_2 
_geom_bond_distance 
_geom_bond_site_symmetry_2 
_ccdc_geom_bond_type 
C1         C1749   1.580       .  S
C1         C1761   1.629       .  S
C1         C1773   1.639       .  S
C1         C1785   1.567       .  S
N2            N3   1.317       .  A
N2            N8   1.290       .  A
N2          Mn31   2.163       .  S
N3           C10   1.357       .  A
N4            N6   1.315       .  A
N4            N5   1.305       .  A
N4          Mn20   2.209       .  S
N5           C11   1.346       .  A
N6            N7   1.318       .  A
N6          Mn31   2.124       .  S
N7           C11   1.352       .  A
N8            N9   1.307       .  A
N8          Mn20   2.151       .  S
N9           C10   1.327       .  A
C10        C1677   1.461       .  S
C11        C1725   1.464       .  S
N12          N18   1.317       .  A
N12          N13   1.309       .  A
N12         Mn42   2.178       .  S
N13          C21   1.346       .  A
N14          N15   1.282       .  A
N14          N16   1.292       .  A
N14         Mn20   2.038       .  S
N15          C22   1.326       .  A
N16          N17   1.329       .  A
N16         Mn42   2.178       .  S
N17          C22   1.361       .  A
N18          N19   1.317       .  A
N18         Mn20   2.178       .  S
N19          C21   1.339       .  A
Mn20        Cl44   2.330       .  S
C21        C1701   1.461       .  S
C22        C1788   1.455       .  S
N23          N24   1.337       .  A
N23          N29   1.308       .  A
N23         Mn31   2.250       .  S
N24          C32   1.350       .  A
N25          N27   1.299       .  A
N25          N26   1.325       .  A
N25         Mn43   2.300       .  S
N26          C33   1.367       .  A
N27          N28   1.295       .  A
N27         Mn31   2.150       .  S
N28          C33   1.333       .  A
N29          N30   1.295       .  A
N29         Mn43   2.234       .  S
N30          C32   1.341       .  A
Mn31        Cl44   2.578       .  S
C32        C1692   1.481       .  S
C33        C1737   1.474       .  S
N34          N35   1.318       .  A
N34          N40   1.315       .  A
N34         Mn42   2.171       .  S
N35          C45   1.348       .  A
N36          N37   1.316       .  A
N36          N38   1.314       .  A
N36         Mn43   2.271       .  S
N37          C46   1.343       .  A
N38          N39   1.317       .  A
N38         Mn42   2.145       .  S
N39          C46   1.340       .  A
N40          N41   1.314       .  A
N40         Mn43   2.183       .  S
N41          C45   1.349       .  A
Mn42        Cl44   2.520       .  S
Mn43        Cl44   2.366       .  S
C45        C1665   1.487       .  S
C46        C1716   1.502       .  S
C47        C1629   1.631       .  S
C47        C1641   1.600       .  S
C47        C1656   1.624       .  S
C47        C1740   1.561       .  S
C48        C1593   1.599       .  S
C48        C1605   1.611       .  S
C48        C1617   1.621       .  S
C48        C1728   1.580       .  S
C49        C1560   1.615       .  S
C49        C1569   1.660       .  S
C49        C1581   1.635       .  S
C49        C1713   1.578       .  S
C50        C1521   1.620       .  S
C50        C1536   1.619       .  S
C50        C1548   1.586       .  S
C50        C1704   1.580       .  S
C51        C1485   1.627       .  S
C51        C1497   1.621       .  S
C51        C1509   1.621       .  S
C51        C1689   1.553       .  S
C52        C1449   1.621       .  S
C52        C1461   1.627       .  S
C52        C1476   1.665       .  S
C52        C1680   1.559       .  S
C53        C1413   1.606       .  S
C53        C1428   1.660       .  S
C53        C1437   1.626       .  S
C53        C1668   1.596       .  S
C54          C55   1.434       .  D
C54        C1380   1.529   1_556  S
C54        C1401   1.599       .  S
C55        C1365   1.541       .  S
C55        C1389   1.620   1_556  S
C56          C57   1.388       .  D
C56        C1317   1.545       .  S
C56        C1341   1.546   1_565  S
C57        C1329   1.531   1_565  S
C57        C1356   1.535       .  S
C58          C59   1.405       .  D
C58        C1281   1.568   1_455  S
C58        C1305   1.581       .  S
C59        C1269   1.556       .  S
C59        C1293   1.551   1_455  S
C60          C61   1.385       .  D
C60        C1512   1.518       .  S
C60        C1620   1.521       .  S
C61        C1245   1.559       .  S
C61        C1260   1.555       .  S
C62          C63   1.402       .  D
C62        C1473   1.540       .  S
C62        C1608   1.538       .  S
C63        C1221   1.569       .  S
C63        C1233   1.557       .  S
C64          C65   1.395       .  D
C64        C1545   1.549       .  S
C64        C1596   1.569       .  S
C65        C1197   1.507       .  S
C65        C1212   1.535       .  S
C66          C67   1.408       .  D
C66        C1173   1.549   1_556  S
C66        C1188   1.565       .  S
C67        C1149   1.589   1_556  S
C67        C1161   1.553       .  S
C68          C69   1.418       .  D
C68        C1104   1.604   1_556  S
C68        C1116   1.567       .  S
C69        C1125   1.552   1_556  S
C69        C1137   1.582       .  S
C70          C71   1.399       .  D
C70        C1077   1.552   1_455  S
C70        C1092   1.572       .  S
C71        C1053   1.516       .  S
C71        C1068   1.537   1_455  S
C72          C73   1.391       .  D
C72        C1029   1.510       .  S
C72        C1041   1.550       .  S
C73        C1488   1.533       .  S
C73        C1584   1.565       .  S
C74          C75   1.402       .  D
C74        C1464   1.574       .  S
C74        C1776   1.545       .  S
C75        C1005   1.551       .  S
C75        C1017   1.539       .  S
C76         C957   1.638       .  S
C76         C969   1.606       .  S
C76         C981   1.624       .  S
C76         C993   1.532       .  S
N77          N78   1.320       .  A
N77          N83   1.306       .  A
N77        Mn106   2.180       .  S
N78          C85   1.348       .  A
N79          N81   1.307   1_554  A
N79          N80   1.312       .  A
N79         Mn95   2.113   1_554  S
N80          C86   1.344   1_554  A
N81          N82   1.304       .  A
N81        Mn106   2.186       .  S
N82          C86   1.349       .  A
N83          N84   1.304       .  A
N83         Mn95   2.124       .  S
N84          C85   1.337       .  A
C85         C996   1.446   1_455  S
C86         C924   1.475       .  S
N87          N93   1.313   1_655  A
N87          N88   1.331   1_655  A
N87        Mn117   2.193       .  S
N88          C96   1.355       .  A
N89          N90   1.298       .  A
N89          N91   1.303       .  A
N89         Mn95   2.092   1_655  S
N90          C97   1.339       .  A
N91          N92   1.313       .  A
N91        Mn117   2.153   1_556  S
N92          C97   1.363       .  A
N93          N94   1.293       .  A
N93         Mn95   2.115   1_554  S
N94          C96   1.336       .  A
Mn95       Cl119   2.506       .  S
C96         C888   1.462       .  S
C97         C897   1.461       .  S
N98          N99   1.309       .  A
N98         N104   1.301       .  A
N98        Mn106   2.130       .  S
N99         C107   1.351       .  A
N100        N102   1.313       .  A
N100        N101   1.311       .  A
N100       Mn118   2.151       .  S
N101        C108   1.335       .  A
N102        N103   1.327       .  A
N102       Mn106   2.216       .  S
N103        C108   1.349       .  A
N104        N105   1.312       .  A
N104       Mn118   2.133       .  S
N105        C107   1.361       .  A
Mn106      Cl119   2.432       .  S
C107        C933   1.492       .  S
C108        C912   1.469   1_455  S
N109        N110   1.299       .  A
N109        N115   1.314       .  A
N109       Mn117   2.167   1_556  S
N110        C120   1.354       .  A
N111        N112   1.303       .  A
N111        N113   1.307   1_455  A
N111       Mn118   2.103   1_554  S
N112        C121   1.341       .  A
N113        N114   1.307   1_655  A
N113       Mn117   2.150       .  S
N114        C121   1.340       .  A
N115        N116   1.308       .  A
N115       Mn118   2.116   1_655  S
N116        C120   1.341       .  A
Mn117      Cl119   2.463   1_654  S
Mn118      Cl119   2.530       .  S
C120        C945   1.472       .  S
C121        C873   1.417       .  S
C122        C948   1.570       .  S
C122       C1044   1.605       .  S
C122       C1128   1.638       .  S
C122       C1296   1.644       .  S
C123        C936   1.561       .  S
C123       C1020   1.631       .  S
C123       C1089   1.589       .  S
C123       C1368   1.659       .  S
C124        C861   1.598       .  S
C124        C921   1.556       .  S
C124       C1008   1.642       .  S
C124       C1164   1.631       .  S
C125        C849   1.630       .  S
C125        C909   1.587       .  S
C125       C1080   1.611       .  S
C125       C1140   1.667       .  S
C126        C825   1.638       .  S
C126        C840   1.629       .  S
C126        C900   1.543       .  S
C126       C1032   1.599       .  S
C127        C128   1.399       .  D
C127       C1425   1.556       .  S
C127       C1632   1.545       .  S
C128        C852   1.548       .  S
C128        C984   1.542       .  S
C129        C816   1.649       .  S
C129        C885   1.620       .  S
C129       C1152   1.615       .  S
C129       C1209   1.613       .  S
C130        C876   1.540       .  S
C130       C1200   1.622       .  S
C130       C1272   1.617       .  S
C130       C1392   1.654       .  S
C131        C132   1.392       .  D
C131        C765   1.539       .  S
C131        C777   1.562   1_565  S
C132        C789   1.537   1_565  S
C132        C804   1.552       .  S
C133        C134   1.408       .  D
C133       C1524   1.552       .  S
C133       C1572   1.555       .  S
C134        C741   1.581       .  S
C134        C753   1.565       .  S
C135        C136   1.390       .  D
C135        C717   1.534       .  S
C135        C732   1.549       .  S
C136       C1452   1.542       .  S
C136       C1644   1.548       .  S
C137        C696   1.645       .  S
C137        C705   1.575       .  S
C137        C729   1.610       .  S
C137       C1113   1.665       .  S
N138        N139   1.308       .  A
N138        N144   1.309       .  A
N138       Mn167   2.137       .  S
N139        C146   1.341       .  A
N140        N142   1.314       .  A
N140        N141   1.308       .  A
N140       Mn156   2.111       .  S
N141        C147   1.330       .  A
N142        N143   1.308       .  A
N142       Mn167   2.190   1_545  S
N143        C147   1.353       .  A
N144        N145   1.304       .  A
N144       Mn156   2.130   1_565  S
N145        C146   1.355       .  A
C146        C708   1.445   1_565  S
C147        C609   1.445   1_556  S
N148        N154   1.298   1_554  A
N148        N149   1.283       .  A
N148       Mn178   2.031   1_545  S
N149        C157   1.329       .  A
N150        N151   1.300       .  A
N150        N152   1.305   1_545  A
N150       Mn156   2.132       .  S
N151        C158   1.346       .  A
N152        N153   1.310       .  A
N152       Mn178   2.118   1_556  S
N153        C158   1.342   1_565  A
N154        N155   1.331       .  A
N154       Mn156   2.219       .  S
N155        C157   1.369   1_556  A
Mn156      Cl180   2.477   1_545  S
C157        C621   1.457       .  S
C158        C660   1.418       .  S
N159        N160   1.314       .  A
N159        N165   1.302       .  A
N159       Mn167   2.095   1_554  S
N160        C168   1.357       .  A
N161        N163   1.317       .  A
N161        N162   1.325       .  A
N161       Mn179   2.148   1_556  S
N162        C169   1.340       .  A
N163        N164   1.291       .  A
N163       Mn167   2.118       .  S
N164        C169   1.332       .  A
N165        N166   1.290       .  A
N165       Mn179   2.101       .  S
N166        C168   1.330       .  A
Mn167      Cl180   2.491       .  S
C168        C681   1.465       .  S
C169        C645   1.456       .  S
N170        N171   1.307   1_554  A
N170        N176   1.309       .  A
N170       Mn178   2.111       .  S
N171        C181   1.329       .  A
N172        N173   1.304       .  A
N172        N174   1.298       .  A
N172       Mn179   2.177       .  S
N173        C182   1.345       .  A
N174        N175   1.313       .  A
N174       Mn178   2.110       .  S
N175        C182   1.349       .  A
N176        N177   1.325   1_554  A
N176       Mn179   2.227       .  S
N177        C181   1.356       .  A
Mn178      Cl180   2.487   1_554  S
Mn179      Cl180   2.404   1_554  S
C181        C669   1.467       .  S
C182        C633   1.481       .  S
C183        C585   1.626       .  S
C183        C597   1.649       .  S
C183        C684   1.552       .  S
C183        C756   1.669       .  S
C184        C573   1.636       .  S
C184        C672   1.552       .  S
C184        C801   1.659       .  S
C184       C1185   1.652       .  S
C185        C657   1.553       .  S
C185        C720   1.610       .  S
C185        C792   1.597       .  S
C185       C1404   1.637       .  S
C186        C537   1.649       .  S
C186        C549   1.622       .  S
C186        C561   1.639       .  S
C186        C648   1.546       .  S
C187        C636   1.572       .  S
C187        C744   1.664       .  S
C187       C1176   1.663       .  S
C187       C1320   1.597       .  S
C188        C189   1.383       .  D
C188       C1416   1.571       .  S
C188       C1752   1.514       .  S
C189        C564   1.507       .  S
C189        C576   1.551       .  S
C190        C624   1.573       .  S
C190       C1257   1.605       .  S
C190       C1344   1.641       .  S
C190       C1377   1.633       .  S
C191        C528   1.666       .  S
C191        C612   1.555       .  S
C191       C1101   1.617       .  S
C191       C1248   1.662       .  S
C192        C193   1.406       .  D
C192        C813   1.554       .  S
C192        C837   1.564   1_455  S
C193        C501   1.544       .  S
C193        C516   1.561   1_455  S
C194        C195   1.419       .  D
C194        C525   1.588   1_565  S
C194        C600   1.592       .  S
C195        C477   1.563       .  S
C195        C489   1.593   1_565  S
C196        C197   1.382       .  D
C196       C1500   1.533       .  S
C196       C1653   1.529       .  S
C197        C453   1.531       .  S
C197        C468   1.544       .  S
C198        C199   1.387       .  D
C198        C429   1.518       .  S
C198        C441   1.553       .  S
C199       C1533   1.554       .  S
C199       C1764   1.522       .  S
C200        C420   1.556       .  S
C200        C456   1.638       .  S
C200        C492   1.604       .  S
C200       C1284   1.611       .  S
N201        N202   1.307       .  A
N201        N207   1.323       .  A
N201       Mn230   2.166   1_655  S
N202        C209   1.332       .  A
N203        N205   1.310   1_655  A
N203        N204   1.310   1_655  A
N203       Mn219   2.197       .  S
N204        C210   1.340       .  A
N205        N206   1.304       .  A
N205       Mn230   2.131   1_545  S
N206        C210   1.339       .  A
N207        N208   1.310       .  A
N207       Mn219   2.209   1_565  S
N208        C209   1.340       .  A
C209        C417   1.481   1_565  S
C210        C345   1.453       .  S
N211        N217   1.305       .  A
N211        N212   1.298       .  A
N211       Mn241   2.134       .  S
N212        C220   1.342       .  A
N213        N214   1.312       .  A
N213        N215   1.311       .  A
N213       Mn219   2.140       .  S
N214        C221   1.356       .  A
N215        N216   1.310       .  A
N215       Mn241   2.174   1_655  S
N216        C221   1.343       .  A
N217        N218   1.321       .  A
N217       Mn219   2.172   1_455  S
N218        C220   1.355       .  A
Mn219      Cl243   2.343   1_645  S
C220        C336   1.446       .  S
C221        C372   1.449       .  S
N222        N223   1.308       .  A
N222        N228   1.307       .  A
N222       Mn230   2.347       .  S
N223        C231   1.321       .  A
N224        N226   1.302   1_455  A
N224        N225   1.323   1_455  A
N224       Mn242   2.193       .  S
N225        C232   1.351       .  A
N226        N227   1.295       .  A
N226       Mn230   2.210   1_655  S
N227        C232   1.336       .  A
N228        N229   1.326       .  A
N228       Mn242   2.316       .  S
N229        C231   1.334       .  A
Mn230      Cl243   2.562       .  S
C231        C393   1.463       .  S
C232        C408   1.466       .  S
N233        N234   1.316       .  A
N233        N239   1.320       .  A
N233       Mn241   2.188   1_565  S
N234        C244   1.335       .  A
N235        N236   1.306       .  A
N235        N237   1.301   1_565  A
N235       Mn242   2.266       .  S
N236        C245   1.335       .  A
N237        N238   1.306       .  A
N237       Mn241   2.093       .  S
N238        C245   1.336   1_545  A
N239        N240   1.320       .  A
N239       Mn242   2.199       .  S
N240        C244   1.351       .  A
Mn241      Cl243   2.406   1_545  S
Mn242      Cl243   2.338       .  S
C244        C360   1.474   1_455  S
C245        C381   1.472       .  S
C246        C321   1.648       .  S
C246        C405   1.569       .  S
C246        C480   1.668       .  S
C246        C513   1.627       .  S
C247        C396   1.526       .  S
C247        C432   1.652       .  S
C247        C504   1.624       .  S
C247       C1353   1.604       .  S
C248        C309   1.585       .  S
C248        C384   1.585       .  S
C248        C444   1.611       .  S
C248        C768   1.619       .  S
C249        C297   1.595       .  S
C249        C369   1.579       .  S
C249        C465   1.611       .  S
C249       C1065   1.602       .  S
C250        C261   1.631       .  S
C250        C273   1.609       .  S
C250        C285   1.647       .  S
C250        C357   1.564       .  S
C251        C252   1.396       .  D
C251       C1440   1.527       .  S
C251       C1557   1.559       .  S
C252        C288   1.562       .  S
C252        C324   1.527       .  S
C253        C348   1.579       .  S
C253       C1236   1.639       .  S
C253       C1308   1.672       .  S
C253       C1332   1.634       .  S
C254        C333   1.573       .  S
C254        C780   1.618       .  S
C254       C1056   1.631       .  S
C254       C1224   1.627       .  S
C255        C256   1.413       .  D
C255        C864   1.553       .  S
C255        C972   1.552   1_455  S
C256        C264   1.535   1_455  S
C256        C312   1.564       .  S
C257        C258   1.396       .  D
C257        C276   1.548       .  S
C257        C300   1.538   1_565  S
C258        C540   1.563       .  S
C258        C693   1.564   1_565  S
C259        C260   1.419       .  D
C259        C828   1.520   1_556  S
C259        C960   1.582       .  S
C260        C552   1.535       .  S
C260        C588   1.616   1_556  S
C261        C262   1.422       .  A
C261        C266   1.445       .  A
C262        C263   1.422       .  A
C262        H271   1.078       .  S
C263        C264   1.422       .  A
C263        S267   1.816       .  S
C264        C265   1.400       .  A
C265        C266   1.414       .  A
C265        H272   1.084       .  S
C266        S268   1.800       .  S
S267        H270   1.402       .  S
S268        H269   1.403       .  S
C273        C274   1.411       .  A
C273        C278   1.439       .  A
C274        C275   1.430       .  A
C274        H283   1.072       .  S
C275        C276   1.432       .  A
C275        S279   1.804       .  S
C276        C277   1.401       .  A
C277        C278   1.415       .  A
C277        H284   1.078       .  S
C278        S280   1.806       .  S
S279        H282   1.402       .  S
S280        H281   1.406       .  S
C285        C286   1.426       .  A
C285        C290   1.461       .  A
C286        C287   1.431       .  A
C286        H295   1.081       .  S
C287        C288   1.433       .  A
C287        S291   1.800       .  S
C288        C289   1.397       .  A
C289        C290   1.417       .  A
C289        H296   1.083       .  S
C290        S292   1.805       .  S
S291        H294   1.399       .  S
S292        H293   1.374       .  S
C297        C298   1.431       .  A
C297        C302   1.417       .  A
C298        C299   1.409       .  A
C298        H307   1.080       .  S
C299        C300   1.413       .  A
C299        S303   1.798       .  S
C300        C301   1.416       .  A
C301        C302   1.419       .  A
C301        H308   1.079       .  S
C302        S304   1.797       .  S
S303        H306   1.395   1_545  S
S304        H305   1.403       .  S
C309        C310   1.406       .  A
C309        C314   1.434       .  A
C310        C311   1.408       .  A
C310        H319   1.074       .  S
C311        C312   1.417       .  A
C311        S315   1.779       .  S
C312        C313   1.409       .  A
C313        C314   1.417       .  A
C313        H320   1.076       .  S
C314        S316   1.802       .  S
S315        H318   1.409       .  S
S316        H317   1.406       .  S
C321        C322   1.450       .  A
C321        C326   1.438       .  A
C322        C323   1.391       .  A
C322        H331   1.068       .  S
C323        C324   1.392       .  A
C323        S327   1.809       .  S
C324        C325   1.418       .  A
C325        C326   1.431       .  A
C325        H332   1.080       .  S
C326        S328   1.783       .  S
S327        H330   1.405       .  S
S328        H329   1.408       .  S
C333        C334   1.426       .  A
C333        C338   1.443       .  A
C334        C335   1.397       .  A
C334        H343   1.072       .  S
C335        C336   1.378       .  A
C335        S339   1.793       .  S
C336        C337   1.402       .  A
C337        C338   1.406       .  A
C337        H344   1.084       .  S
C338        S340   1.812       .  S
S339        H342   1.409       .  S
S340        H341   1.407       .  S
C345        C346   1.422       .  A
C345        C350   1.408       .  A
C346        C347   1.401       .  A
C346        H355   1.077       .  S
C347        C348   1.406       .  A
C347        S351   1.798       .  S
C348        C349   1.416       .  A
C349        C350   1.375       .  A
C349        H356   1.079       .  S
C350        S352   1.807       .  S
S351        H354   1.403       .  S
S352        H353   1.408       .  S
C357        C358   1.390       .  A
C357        C362   1.432       .  A
C358        C359   1.383       .  A
C358        H367   1.071       .  S
C359        C360   1.410       .  A
C359        S363   1.767       .  S
C360        C361   1.392       .  A
C361        C362   1.405       .  A
C361        H368   1.083       .  S
C362        S364   1.799       .  S
S363        H366   1.377       .  S
S364        H365   1.406       .  S
C369        C370   1.439       .  A
C369        C374   1.469       .  A
C370        C371   1.385       .  A
C370        H379   1.075       .  S
C371        C372   1.377       .  A
C371        S375   1.803       .  S
C372        C373   1.377       .  A
C373        C374   1.396       .  A
C373        H380   1.083   1_545  S
C374        S376   1.825       .  S
S375        H378   1.407       .  S
S376        H377   1.378       .  S
C381        C382   1.410       .  A
C381        C386   1.391       .  A
C382        C383   1.401       .  A
C382        H391   1.083       .  S
C383        C384   1.443       .  A
C383        S387   1.814       .  S
C384        C385   1.428       .  A
C385        C386   1.383       .  A
C385        H392   1.072       .  S
C386        S388   1.803       .  S
S387        H390   1.380       .  S
S388        H389   1.408       .  S
C393        C394   1.391       .  A
C393        C398   1.380       .  A
C394        C395   1.383       .  A
C394        H403   1.073       .  S
C395        C396   1.426       .  A
C395        S399   1.793       .  S
C396        C397   1.441       .  A
C397        C398   1.384       .  A
C397        H404   1.082       .  S
C398        S400   1.789       .  S
S399        H402   1.408       .  S
S400        H401   1.409       .  S
C405        C406   1.414       .  A
C405        C410   1.467       .  A
C406        C407   1.401       .  A
C406        H415   1.082       .  S
C407        C408   1.413       .  A
C407        S411   1.786       .  S
C408        C409   1.373       .  A
C409        C410   1.399       .  A
C409        H416   1.084       .  S
C410        S412   1.806       .  S
S411        H414   1.405       .  S
S412        H413   1.408       .  S
C417        C418   1.420       .  A
C417        C422   1.408       .  A
C418        C419   1.381       .  A
C418        H427   1.076       .  S
C419        C420   1.371       .  A
C419        S423   1.806       .  S
C420        C421   1.424       .  A
C421        C422   1.392       .  A
C421        H428   1.065       .  S
C422        S424   1.794   1_545  S
S423        H426   1.391       .  S
S424        H425   1.407   1_565  S
C429        C430   1.384       .  A
C429        C434   1.412       .  A
C430        C431   1.412       .  A
C430        H439   1.085       .  S
C431        C432   1.477       .  A
C431        S435   1.809       .  S
C432        C433   1.428       .  A
C433        C434   1.408       .  A
C433        H440   1.047       .  S
C434        S436   1.806       .  S
S435        H438   1.409       .  S
S436        H437   1.394       .  S
C441        C442   1.424       .  A
C441        C446   1.412       .  A
C442        C443   1.429       .  A
C442        H451   1.077       .  S
C443        C444   1.418       .  A
C443        S447   1.791       .  S
C444        C445   1.430       .  A
C445        C446   1.401       .  A
C445        H452   1.077       .  S
C446        S448   1.787       .  S
S447        H450   1.399       .  S
S448        H449   1.393       .  S
C453        C454   1.401       .  A
C453        C458   1.432       .  A
C454        C455   1.396       .  A
C454        H463   1.085       .  S
C455        C456   1.438       .  A
C455        S459   1.806       .  S
C456        C457   1.431       .  A
C457        C458   1.426       .  A
C457        H464   1.077       .  S
C458        S460   1.802       .  S
S459        H462   1.402       .  S
S460        H461   1.399       .  S
C465        C466   1.420       .  A
C465        C470   1.443       .  A
C466        C467   1.406       .  A
C466        H475   1.071       .  S
C467        C468   1.402       .  A
C467        S471   1.798       .  S
C468        C469   1.412       .  A
C469        C470   1.425       .  A
C469        H476   1.072       .  S
C470        S472   1.805       .  S
S471        H474   1.405       .  S
S472        H473   1.406       .  S
C477        C478   1.413       .  A
C477        C482   1.424       .  A
C478        C479   1.435       .  A
C478        H487   1.084       .  S
C479        C480   1.447       .  A
C479        S483   1.796       .  S
C480        C481   1.422       .  A
C481        C482   1.413       .  A
C481        H488   1.078       .  S
C482        S484   1.804       .  S
S483        H486   1.407       .  S
S484        H485   1.402       .  S
C489        C490   1.438       .  A
C489        C494   1.421       .  A
C490        C491   1.430       .  A
C490        H499   1.058       .  S
C491        C492   1.409       .  A
C491        S495   1.809       .  S
C492        C493   1.417       .  A
C493        C494   1.411       .  A
C493        H500   1.066       .  S
C494        S496   1.799   1_545  S
S495        H498   1.400       .  S
S496        H497   1.407   1_565  S
C501        C502   1.400       .  A
C501        C506   1.415       .  A
C502        C503   1.418       .  A
C502        H511   1.082       .  S
C503        C504   1.459       .  A
C503        S507   1.807       .  S
C504        C505   1.407       .  A
C505        C506   1.413       .  A
C505        H512   1.078       .  S
C506        S508   1.800       .  S
S507        H510   1.408       .  S
S508        H509   1.406       .  S
C513        C514   1.420       .  A
C513        C518   1.459       .  A
C514        C515   1.435       .  A
C514        H523   1.065       .  S
C515        C516   1.420       .  A
C515        S519   1.799       .  S
C516        C517   1.398       .  A
C517        C518   1.410       .  A
C517        H524   1.070       .  S
C518        S520   1.809       .  S
S519        H522   1.401       .  S
S520        H521   1.377       .  S
C525        C526   1.424       .  A
C525        C530   1.436       .  A
C526        C527   1.453       .  A
C526        H535   1.082       .  S
C527        C528   1.458       .  A
C527        S531   1.802       .  S
C528        C529   1.430       .  A
C529        C530   1.432       .  A
C529        H536   1.080       .  S
C530        S532   1.793       .  S
S531        H534   1.406       .  S
S532        H533   1.408       .  S
C537        C538   1.424       .  A
C537        C542   1.455       .  A
C538        C539   1.432       .  A
C538        H547   1.083       .  S
C539        C540   1.434       .  A
C539        S543   1.804       .  S
C540        C541   1.400       .  A
C541        C542   1.422       .  A
C541        H548   1.080       .  S
C542        S544   1.807       .  S
S543        H546   1.401       .  S
S544        H545   1.382       .  S
C549        C550   1.425       .  A
C549        C554   1.421       .  A
C550        C551   1.415       .  A
C550        H559   1.078       .  S
C551        C552   1.421       .  A
C551        S555   1.797       .  S
C552        C553   1.407       .  A
C553        C554   1.423       .  A
C553        H560   1.084       .  S
C554        S556   1.795       .  S
S555        H558   1.399       .  S
S556        H557   1.409       .  S
C561        C562   1.445       .  A
C561        C566   1.476       .  A
C562        C563   1.413       .  A
C562        H571   1.070       .  S
C563        C564   1.400       .  A
C563        S567   1.809       .  S
C564        C565   1.386       .  A
C565        C566   1.402       .  A
C565        H572   1.083       .  S
C566        S568   1.813       .  S
S567        H570   1.401       .  S
S568        H569   1.406       .  S
C573        C574   1.413       .  A
C573        C578   1.431       .  A
C574        C575   1.417       .  A
C574        H583   1.071       .  S
C575        C576   1.420       .  A
C575        S579   1.801       .  S
C576        C577   1.424       .  A
C577        C578   1.436       .  A
C577        H584   1.082       .  S
C578        S580   1.804       .  S
S579        H582   1.403       .  S
S580        H581   1.408       .  S
C585        C586   1.434       .  A
C585        C590   1.416       .  A
C586        C587   1.425       .  A
C586        H595   1.081       .  S
C587        C588   1.429       .  A
C587        S591   1.790   1_554  S
C588        C589   1.433       .  A
C589        C590   1.435       .  A
C589        H596   1.042       .  S
C590        S592   1.806       .  S
S591        H594   1.408   1_556  S
S592        H593   1.401       .  S
C597        C598   1.409       .  A
C597        C602   1.444       .  A
C598        C599   1.428       .  A
C598        H607   1.080       .  S
C599        C600   1.438       .  A
C599        S603   1.796       .  S
C600        C601   1.429       .  A
C601        C602   1.455       .  A
C601        H608   1.081       .  S
C602        S604   1.801       .  S
S603        H606   1.384       .  S
S604        H605   1.406       .  S
C609        C610   1.391       .  A
C609        C614   1.383       .  A
C610        C611   1.373       .  A
C610        H619   1.085       .  S
C611        C612   1.416       .  A
C611        S615   1.776       .  S
C612        C613   1.433       .  A
C613        C614   1.388       .  A
C613        H620   1.056       .  S
C614        S616   1.805   1_554  S
S615        H618   1.402       .  S
S616        H617   1.407   1_556  S
C621        C622   1.407       .  A
C621        C626   1.425       .  A
C622        C623   1.404       .  A
C622        H631   1.084       .  S
C623        C624   1.416       .  A
C623        S627   1.801       .  S
C624        C625   1.402       .  A
C625        C626   1.405       .  A
C625        H632   1.068       .  S
C626        S628   1.797       .  S
S627        H630   1.409       .  S
S628        H629   1.403       .  S
C633        C634   1.412       .  A
C633        C638   1.403       .  A
C634        C635   1.398       .  A
C634        H643   1.081       .  S
C635        C636   1.424       .  A
C635        S639   1.784       .  S
C636        C637   1.409       .  A
C637        C638   1.385       .  A
C637        H644   1.068       .  S
C638        S640   1.788       .  S
S639        H642   1.406       .  S
S640        H641   1.406       .  S
C645        C646   1.381       .  A
C645        C650   1.405       .  A
C646        C647   1.410       .  A
C646        H655   1.084       .  S
C647        C648   1.438       .  A
C647        S651   1.798       .  S
C648        C649   1.420       .  A
C649        C650   1.382       .  A
C649        H656   1.079       .  S
C650        S652   1.775       .  S
S651        H654   1.407       .  S
S652        H653   1.405       .  S
C657        C658   1.362       .  A
C657        C662   1.433       .  A
C658        C659   1.369       .  A
C658        H667   1.079       .  S
C659        C660   1.433       .  A
C659        S663   1.788       .  S
C660        C661   1.388       .  A
C661        C662   1.378       .  A
C661        H668   1.087   1_545  S
C662        S664   1.804       .  S
S663        H666   1.407       .  S
S664        H665   1.389       .  S
C669        C670   1.402       .  A
C669        C674   1.407       .  A
C670        C671   1.402       .  A
C670        H679   1.078       .  S
C671        C672   1.399       .  A
C671        S675   1.761       .  S
C672        C673   1.420       .  A
C673        C674   1.387       .  A
C673        H680   1.073       .  S
C674        S676   1.805       .  S
S675        H678   1.399       .  S
S676        H677   1.407       .  S
C681        C682   1.401       .  A
C681        C686   1.377       .  A
C682        C683   1.403       .  A
C682        H691   1.083       .  S
C683        C684   1.416       .  A
C683        S687   1.800       .  S
C684        C685   1.439       .  A
C685        C686   1.383       .  A
C685        H692   1.078       .  S
C686        S688   1.802       .  S
S687        H690   1.408       .  S
S688        H689   1.407       .  S
C693        C694   1.419       .  A
C693        C698   1.419       .  A
C694        C695   1.435       .  A
C694        H703   1.081       .  S
C695        C696   1.423       .  A
C695        S699   1.795       .  S
C696        C697   1.439       .  A
C697        C698   1.429       .  A
C697        H704   1.075       .  S
C698        S700   1.800       .  S
S699        H702   1.407       .  S
S700        H701   1.405   1_545  S
C705        C706   1.444       .  A
C705        C710   1.419       .  A
C706        C707   1.382       .  A
C706        H715   1.071       .  S
C707        C708   1.380       .  A
C707        S711   1.808       .  S
C708        C709   1.405       .  A
C709        C710   1.391       .  A
C709        H716   1.078   1_545  S
C710        S712   1.788       .  S
S711        H714   1.407       .  S
S712        H713   1.408       .  S
C717        C718   1.414       .  A
C717        C722   1.407       .  A
C718        C719   1.431       .  A
C718        H727   1.082       .  S
C719        C720   1.437       .  A
C719        S723   1.807       .  S
C720        C721   1.421       .  A
C721        C722   1.408       .  A
C721        H728   1.069       .  S
C722        S724   1.799       .  S
S723        H726   1.406       .  S
S724        H725   1.402       .  S
C729        C730   1.413       .  A
C729        C734   1.450       .  A
C730        C731   1.420       .  A
C730        H739   1.081       .  S
C731        C732   1.429       .  A
C731        S735   1.804       .  S
C732        C733   1.407       .  A
C733        C734   1.423       .  A
C733        H740   1.082       .  S
C734        S736   1.812       .  S
S735        H738   1.400       .  S
S736        H737   1.406       .  S
C741        C742   1.416       .  A
C741        C746   1.433       .  A
C742        C743   1.436       .  A
C742        H751   1.078       .  S
C743        C744   1.441       .  A
C743        S747   1.804       .  S
C744        C745   1.433       .  A
C745        C746   1.439       .  A
C745        H752   1.071       .  S
C746        S748   1.801       .  S
S747        H750   1.407       .  S
S748        H749   1.400       .  S
C753        C754   1.414       .  A
C753        C758   1.413       .  A
C754        C755   1.443       .  A
C754        H763   1.073       .  S
C755        C756   1.457       .  A
C755        S759   1.805       .  S
C756        C757   1.432       .  A
C757        C758   1.416       .  A
C757        H764   1.060       .  S
C758        S760   1.805       .  S
S759        H762   1.407       .  S
S760        H761   1.392       .  S
C765        C766   1.404       .  A
C765        C770   1.411       .  A
C766        C767   1.426       .  A
C766        H775   1.078       .  S
C767        C768   1.440       .  A
C767        S771   1.800       .  S
C768        C769   1.432       .  A
C769        C770   1.416       .  A
C769        H776   1.076       .  S
C770        S772   1.801       .  S
S771        H774   1.407       .  S
S772        H773   1.407       .  S
C777        C778   1.406       .  A
C777        C782   1.427       .  A
C778        C779   1.424       .  A
C778        H787   1.077       .  S
C779        C780   1.430       .  A
C779        S783   1.781       .  S
C780        C781   1.418       .  A
C781        C782   1.420       .  A
C781        H788   1.083       .  S
C782        S784   1.797       .  S
S783        H786   1.409       .  S
S784        H785   1.406       .  S
C789        C790   1.395       .  A
C789        C794   1.432       .  A
C790        C791   1.409       .  A
C790        H799   1.081       .  S
C791        C792   1.451       .  A
C791        S795   1.813       .  S
C792        C793   1.412       .  A
C793        C794   1.422       .  A
C793        H800   1.082       .  S
C794        S796   1.797       .  S
S795        H798   1.408       .  S
S796        H797   1.401       .  S
C801        C802   1.434       .  A
C801        C806   1.464       .  A
C802        C803   1.431       .  A
C802        H811   1.065       .  S
C803        C804   1.424       .  A
C803        S807   1.806       .  S
C804        C805   1.388       .  A
C805        C806   1.420       .  A
C805        H812   1.082       .  S
C806        S808   1.794       .  S
S807        H810   1.394       .  S
S808        H809   1.409       .  S
C813        C814   1.400       .  A
C813        C818   1.414       .  A
C814        C815   1.423       .  A
C814        H823   1.081       .  S
C815        C816   1.462       .  A
C815        S819   1.809       .  S
C816        C817   1.438       .  A
C817        C818   1.429       .  A
C817        H824   1.079       .  S
C818        S820   1.798       .  S
S819        H822   1.397       .  S
S820        H821   1.405       .  S
C825        C826   1.433       .  A
C825        C830   1.459       .  A
C826        C827   1.417       .  A
C826        H835   1.064       .  S
C827        C828   1.423       .  A
C827        S831   1.801       .  S
C828        C829   1.392       .  A
C829        C830   1.412       .  A
C829        H836   1.085   1_554  S
C830        S832   1.807       .  S
S831        H834   1.391       .  S
S832        H833   1.409       .  S
C837        C838   1.397       .  A
C837        C842   1.430       .  A
C838        C839   1.415       .  A
C838        H847   1.069   1_655  S
C839        C840   1.440       .  A
C839        S843   1.793       .  S
C840        C841   1.422       .  A
C841        C842   1.432       .  A
C841        H848   1.081       .  S
C842        S844   1.802       .  S
S843        H846   1.405       .  S
S844        H845   1.404       .  S
C849        C850   1.423       .  A
C849        C854   1.428       .  A
C850        C851   1.416       .  A
C850        H859   1.070       .  S
C851        C852   1.412       .  A
C851        S855   1.803       .  S
C852        C853   1.418       .  A
C853        C854   1.431       .  A
C853        H860   1.083       .  S
C854        S856   1.801       .  S
S855        H858   1.406       .  S
S856        H857   1.407       .  S
C861        C862   1.423       .  A
C861        C866   1.428       .  A
C862        C863   1.422       .  A
C862        H871   1.082       .  S
C863        C864   1.414       .  A
C863        S867   1.800       .  S
C864        C865   1.419       .  A
C865        C866   1.426       .  A
C865        H872   1.082       .  S
C866        S868   1.805       .  S
S867        H870   1.407       .  S
S868        H869   1.404       .  S
C873        C874   1.371       .  A
C873        C878   1.412       .  A
C874        C875   1.377       .  A
C874        H883   1.083       .  S
C875        C876   1.432       .  A
C875        S879   1.798       .  S
C876        C877   1.398       .  A
C877        C878   1.378       .  A
C877        H884   1.080       .  S
C878        S880   1.791       .  S
S879        H882   1.409       .  S
S880        H881   1.387       .  S
C885        C886   1.432       .  A
C885        C890   1.446       .  A
C886        C887   1.418       .  A
C886        H895   1.074       .  S
C887        C888   1.376       .  A
C887        S891   1.797       .  S
C888        C889   1.394       .  A
C889        C890   1.413       .  A
C889        H896   1.078       .  S
C890        S892   1.790       .  S
S891        H894   1.409       .  S
S892        H893   1.382       .  S
C897        C898   1.396   1_556  A
C897        C902   1.421   1_556  A
C898        C899   1.390       .  A
C898        H907   1.086       .  S
C899        C900   1.419       .  A
C899        S903   1.810       .  S
C900        C901   1.412       .  A
C901        C902   1.383       .  A
C901        H908   1.083       .  S
C902        S904   1.803   1_554  S
S903        H906   1.392       .  S
S904        H905   1.399       .  S
C909        C910   1.449       .  A
C909        C914   1.405       .  A
C910        C911   1.386       .  A
C910        H919   1.070       .  S
C911        C912   1.372       .  A
C911        S915   1.803       .  S
C912        C913   1.401       .  A
C913        C914   1.397       .  A
C913        H920   1.055       .  S
C914        S916   1.793       .  S
S915        H918   1.407       .  S
S916        H917   1.398       .  S
C921        C922   1.404       .  A
C921        C926   1.398       .  A
C922        C923   1.406       .  A
C922        H931   1.077       .  S
C923        C924   1.435       .  A
C923        S927   1.809       .  S
C924        C925   1.406       .  A
C925        C926   1.389       .  A
C925        H932   1.085       .  S
C926        S928   1.803       .  S
S927        H930   1.388       .  S
S928        H929   1.405       .  S
C933        C934   1.404       .  A
C933        C938   1.417       .  A
C934        C935   1.386       .  A
C934        H943   1.075       .  S
C935        C936   1.420       .  A
C935        S939   1.804       .  S
C936        C937   1.414       .  A
C937        C938   1.401       .  A
C937        H944   1.074       .  S
C938        S940   1.803       .  S
S939        H942   1.392       .  S
S940        H941   1.408       .  S
C945        C946   1.388   1_556  A
C945        C950   1.417   1_556  A
C946        C947   1.392       .  A
C946        H955   1.086   1_554  S
C947        C948   1.427       .  A
C947        S951   1.801       .  S
C948        C949   1.412       .  A
C949        C950   1.404       .  A
C949        H956   1.074       .  S
C950        S952   1.808   1_554  S
S951        H954   1.407       .  S
S952        H953   1.407   1_556  S
C957        C958   1.432       .  A
C957        C962   1.414       .  A
C958        C959   1.424       .  A
C958        H967   1.056       .  S
C959        C960   1.415       .  A
C959        S963   1.799       .  S
C960        C961   1.425       .  A
C961        C962   1.435       .  A
C961        H968   1.065       .  S
C962        S964   1.791       .  S
S963        H966   1.392       .  S
S964        H965   1.409       .  S
C969        C970   1.439       .  A
C969        C974   1.409       .  A
C970        C971   1.396       .  A
C970        H979   1.071       .  S
C971        C972   1.404       .  A
C971        S975   1.798   1_655  S
C972        C973   1.425       .  A
C973        C974   1.420       .  A
C973        H980   1.064       .  S
C974        S976   1.802       .  S
S975        H978   1.407       .  S
S976        H977   1.402       .  S
C981        C982   1.412       .  A
C981        C986   1.452       .  A
C982        C983   1.419       .  A
C982        H991   1.056       .  S
C983        C984   1.421       .  A
C983        S987   1.796       .  S
C984        C985   1.400       .  A
C985        C986   1.422       .  A
C985        H992   1.083       .  S
C986        S988   1.809       .  S
S987        H990   1.408       .  S
S988        H989   1.407       .  S
C993        C994   1.388       .  A
C993        C998   1.465       .  A
C994        C995   1.367       .  A
C994       H1003   1.077       .  S
C995        C996   1.392       .  A
C995        S999   1.762       .  S
C996        C997   1.365       .  A
C997        C998   1.393       .  A
C997       H1004   1.077       .  S
C998       S1000   1.803       .  S
S999       H1002   1.409       .  S
S1000      H1001   1.408       .  S
C1005      C1006   1.409       .  A
C1005      C1010   1.420       .  A
C1006      C1007   1.425       .  A
C1006      H1015   1.078       .  S
C1007      C1008   1.438       .  A
C1007      S1011   1.800       .  S
C1008      C1009   1.434       .  A
C1009      C1010   1.417       .  A
C1009      H1016   1.070       .  S
C1010      S1012   1.800       .  S
S1011      H1014   1.405       .  S
S1012      H1013   1.391       .  S
C1017      C1018   1.406       .  A
C1017      C1022   1.421       .  A
C1018      C1019   1.428       .  A
C1018      H1027   1.083       .  S
C1019      C1020   1.444       .  A
C1019      S1023   1.807       .  S
C1020      C1021   1.406       .  A
C1021      C1022   1.415       .  A
C1021      H1028   1.074       .  S
C1022      S1024   1.804       .  S
S1023      H1026   1.407       .  S
S1024      H1025   1.406       .  S
C1029      C1030   1.416       .  A
C1029      C1034   1.406       .  A
C1030      C1031   1.423       .  A
C1030      H1039   1.083       .  S
C1031      C1032   1.424       .  A
C1031      S1035   1.780       .  S
C1032      C1033   1.393       .  A
C1033      C1034   1.394       .  A
C1033      H1040   1.073       .  S
C1034      S1036   1.807       .  S
S1035      H1038   1.408       .  S
S1036      H1037   1.392       .  S
C1041      C1042   1.407       .  A
C1041      C1046   1.430       .  A
C1042      C1043   1.420       .  A
C1042      H1051   1.083       .  S
C1043      C1044   1.445       .  A
C1043      S1047   1.799       .  S
C1044      C1045   1.413       .  A
C1045      C1046   1.413       .  A
C1045      H1052   1.082       .  S
C1046      S1048   1.802       .  S
S1047      H1050   1.390       .  S
S1048      H1049   1.395       .  S
C1053      C1054   1.397       .  A
C1053      C1058   1.401       .  A
C1054      C1055   1.420       .  A
C1054      H1063   1.084       .  S
C1055      C1056   1.464       .  A
C1055      S1059   1.806       .  S
C1056      C1057   1.438       .  A
C1057      C1058   1.405       .  A
C1057      H1064   1.068       .  S
C1058      S1060   1.806       .  S
S1059      H1062   1.409       .  S
S1060      H1061   1.405       .  S
C1065      C1066   1.421       .  A
C1065      C1070   1.430       .  A
C1066      C1067   1.413       .  A
C1066      H1075   1.083       .  S
C1067      C1068   1.422       .  A
C1067      S1071   1.797       .  S
C1068      C1069   1.405       .  A
C1069      C1070   1.409       .  A
C1069      H1076   1.083       .  S
C1070      S1072   1.784       .  S
S1071      H1074   1.388   1_655  S
S1072      H1073   1.398       .  S
C1077      C1078   1.394       .  A
C1077      C1082   1.436       .  A
C1078      C1079   1.410       .  A
C1078      H1087   1.083       .  S
C1079      C1080   1.445       .  A
C1079      S1083   1.792       .  S
C1080      C1081   1.416       .  A
C1081      C1082   1.428       .  A
C1081      H1088   1.079       .  S
C1082      S1084   1.801       .  S
S1083      H1086   1.408       .  S
S1084      H1085   1.403       .  S
C1089      C1090   1.426       .  A
C1089      C1094   1.417       .  A
C1090      C1091   1.416       .  A
C1090      H1099   1.083       .  S
C1091      C1092   1.415       .  A
C1091      S1095   1.778       .  S
C1092      C1093   1.422       .  A
C1093      C1094   1.417       .  A
C1093      H1100   1.068       .  S
C1094      S1096   1.805       .  S
S1095      H1098   1.404       .  S
S1096      H1097   1.401       .  S
C1101      C1102   1.419       .  A
C1101      C1106   1.392       .  A
C1102      C1103   1.412       .  A
C1102      H1111   1.062       .  S
C1103      C1104   1.427       .  A
C1103      S1107   1.778   1_554  S
C1104      C1105   1.439       .  A
C1105      C1106   1.433       .  A
C1105      H1112   1.059       .  S
C1106      S1108   1.810       .  S
S1107      H1110   1.404       .  S
S1108      H1109   1.406       .  S
C1113      C1114   1.427       .  A
C1113      C1118   1.453       .  A
C1114      C1115   1.427       .  A
C1114      H1123   1.069       .  S
C1115      C1116   1.425       .  A
C1115      S1119   1.813       .  S
C1116      C1117   1.412       .  A
C1117      C1118   1.436       .  A
C1117      H1124   1.082       .  S
C1118      S1120   1.801       .  S
S1119      H1122   1.402       .  S
S1120      H1121   1.408       .  S
C1125      C1126   1.419       .  A
C1125      C1130   1.423       .  A
C1126      C1127   1.431       .  A
C1126      H1135   1.083       .  S
C1127      C1128   1.433       .  A
C1127      S1131   1.804       .  S
C1128      C1129   1.433       .  A
C1129      C1130   1.412       .  A
C1129      H1136   1.070       .  S
C1130      S1132   1.797       .  S
S1131      H1134   1.408       .  S
S1132      H1133   1.404       .  S
C1137      C1138   1.406       .  A
C1137      C1142   1.430       .  A
C1138      C1139   1.431       .  A
C1138      H1147   1.076       .  S
C1139      C1140   1.451       .  A
C1139      S1143   1.791       .  S
C1140      C1141   1.425       .  A
C1141      C1142   1.439       .  A
C1141      H1148   1.069       .  S
C1142      S1144   1.798       .  S
S1143      H1146   1.407       .  S
S1144      H1145   1.406       .  S
C1149      C1150   1.416       .  A
C1149      C1154   1.434       .  A
C1150      C1151   1.424       .  A
C1150      H1159   1.072       .  S
C1151      C1152   1.440       .  A
C1151      S1155   1.805       .  S
C1152      C1153   1.420       .  A
C1153      C1154   1.439       .  A
C1153      H1160   1.083       .  S
C1154      S1156   1.800       .  S
S1155      H1158   1.403       .  S
S1156      H1157   1.406       .  S
C1161      C1162   1.396       .  A
C1161      C1166   1.428       .  A
C1162      C1163   1.412       .  A
C1162      H1171   1.067       .  S
C1163      C1164   1.453       .  A
C1163      S1167   1.813       .  S
C1164      C1165   1.414       .  A
C1165      C1166   1.425       .  A
C1165      H1172   1.078       .  S
C1166      S1168   1.794       .  S
S1167      H1170   1.381       .  S
S1168      H1169   1.407       .  S
C1173      C1174   1.382       .  A
C1173      C1178   1.425       .  A
C1174      C1175   1.422       .  A
C1174      H1183   1.085       .  S
C1175      C1176   1.488       .  A
C1175      S1179   1.817       .  S
C1176      C1177   1.422       .  A
C1177      C1178   1.419       .  A
C1177      H1184   1.075       .  S
C1178      S1180   1.805       .  S
S1179      H1182   1.411       .  S
S1180      H1181   1.397       .  S
C1185      C1186   1.421       .  A
C1185      C1190   1.485       .  A
C1186      C1187   1.435       .  A
C1186      H1195   1.077       .  S
C1187      C1188   1.431       .  A
C1187      S1191   1.798       .  S
C1188      C1189   1.378       .  A
C1189      C1190   1.402       .  A
C1189      H1196   1.064       .  S
C1190      S1192   1.839       .  S
S1191      H1194   1.405       .  S
S1192      H1193   1.368       .  S
C1197      C1198   1.385       .  A
C1197      C1202   1.409       .  A
C1198      C1199   1.410       .  A
C1198      H1207   1.081       .  S
C1199      C1200   1.452       .  A
C1199      S1203   1.784       .  S
C1200      C1201   1.434       .  A
C1201      C1202   1.405       .  A
C1201      H1208   1.074       .  S
C1202      S1204   1.806       .  S
S1203      H1206   1.409       .  S
S1204      H1205   1.404       .  S
C1209      C1210   1.405       .  A
C1209      C1214   1.452       .  A
C1210      C1211   1.423       .  A
C1210      H1219   1.075       .  S
C1211      C1212   1.425       .  A
C1211      S1215   1.798       .  S
C1212      C1213   1.393       .  A
C1213      C1214   1.408       .  A
C1213      H1220   1.073       .  S
C1214      S1216   1.823       .  S
S1215      H1218   1.400       .  S
S1216      H1217   1.390       .  S
C1221      C1222   1.432       .  A
C1221      C1226   1.413       .  A
C1222      C1223   1.429       .  A
C1222      H1231   1.060       .  S
C1223      C1224   1.406       .  A
C1223      S1227   1.807       .  S
C1224      C1225   1.424       .  A
C1225      C1226   1.418       .  A
C1225      H1232   1.071       .  S
C1226      S1228   1.799       .  S
S1227      H1230   1.408       .  S
S1228      H1229   1.407       .  S
C1233      C1234   1.421       .  A
C1233      C1238   1.415       .  A
C1234      C1235   1.431       .  A
C1234      H1243   1.079       .  S
C1235      C1236   1.426       .  A
C1235      S1239   1.800       .  S
C1236      C1237   1.426       .  A
C1237      C1238   1.419       .  A
C1237      H1244   1.068       .  S
C1238      S1240   1.796       .  S
S1239      H1242   1.405       .  S
S1240      H1241   1.395       .  S
C1245      C1246   1.392       .  A
C1245      C1250   1.420       .  A
C1246      C1247   1.414       .  A
C1246      H1255   1.071       .  S
C1247      C1248   1.467       .  A
C1247      S1251   1.809       .  S
C1248      C1249   1.433       .  A
C1249      C1250   1.435       .  A
C1249      H1256   1.074       .  S
C1250      S1252   1.801       .  S
S1251      H1254   1.408       .  S
S1252      H1253   1.406       .  S
C1257      C1258   1.419       .  A
C1257      C1262   1.409       .  A
C1258      C1259   1.409       .  A
C1258      H1267   1.076       .  S
C1259      C1260   1.418       .  A
C1259      S1263   1.801       .  S
C1260      C1261   1.432       .  A
C1261      C1262   1.434       .  A
C1261      H1268   1.078       .  S
C1262      S1264   1.800       .  S
S1263      H1266   1.406       .  S
S1264      H1265   1.408       .  S
C1269      C1270   1.424       .  A
C1269      C1274   1.421       .  A
C1270      C1271   1.431       .  A
C1270      H1279   1.082       .  S
C1271      C1272   1.427       .  A
C1271      S1275   1.808       .  S
C1272      C1273   1.417       .  A
C1273      C1274   1.412       .  A
C1273      H1280   1.073       .  S
C1274      S1276   1.794       .  S
S1275      H1278   1.405       .  S
S1276      H1277   1.404       .  S
C1281      C1282   1.407       .  A
C1281      C1286   1.439       .  A
C1282      C1283   1.426       .  A
C1282      H1291   1.077       .  S
C1283      C1284   1.438       .  A
C1283      S1287   1.802       .  S
C1284      C1285   1.423       .  A
C1285      C1286   1.436       .  A
C1285      H1292   1.082       .  S
C1286      S1288   1.806       .  S
S1287      H1290   1.405       .  S
S1288      H1289   1.403   1_655  S
C1293      C1294   1.405       .  A
C1293      C1298   1.425       .  A
C1294      C1295   1.422       .  A
C1294      H1303   1.079       .  S
C1295      C1296   1.446       .  A
C1295      S1299   1.794       .  S
C1296      C1297   1.426       .  A
C1297      C1298   1.420       .  A
C1297      H1304   1.074       .  S
C1298      S1300   1.809       .  S
S1299      H1302   1.402       .  S
S1300      H1301   1.403   1_655  S
C1305      C1306   1.429       .  A
C1305      C1310   1.412       .  A
C1306      C1307   1.442       .  A
C1306      H1315   1.082       .  S
C1307      C1308   1.451       .  A
C1307      S1311   1.817       .  S
C1308      C1309   1.430       .  A
C1309      C1310   1.415       .  A
C1309      H1316   1.063       .  S
C1310      S1312   1.793       .  S
S1311      H1314   1.404       .  S
S1312      H1313   1.408       .  S
C1317      C1318   1.429       .  A
C1317      C1322   1.416       .  A
C1318      C1319   1.425       .  A
C1318      H1327   1.077       .  S
C1319      C1320   1.380       .  A
C1319      S1323   1.810       .  S
C1320      C1321   1.420       .  A
C1321      C1322   1.407       .  A
C1321      H1328   1.068       .  S
C1322      S1324   1.802       .  S
S1323      H1326   1.406       .  S
S1324      H1325   1.406       .  S
C1329      C1330   1.403       .  A
C1329      C1334   1.412       .  A
C1330      C1331   1.424       .  A
C1330      H1339   1.079       .  S
C1331      C1332   1.457       .  A
C1331      S1335   1.815       .  S
C1332      C1333   1.424       .  A
C1333      C1334   1.408       .  A
C1333      H1340   1.067       .  S
C1334      S1336   1.804       .  S
S1335      H1338   1.407       .  S
S1336      H1337   1.391   1_545  S
C1341      C1342   1.404       .  A
C1341      C1346   1.411       .  A
C1342      C1343   1.428       .  A
C1342      H1351   1.081       .  S
C1343      C1344   1.466       .  A
C1343      S1347   1.819       .  S
C1344      C1345   1.425       .  A
C1345      C1346   1.415       .  A
C1345      H1352   1.074       .  S
C1346      S1348   1.800       .  S
S1347      H1350   1.381       .  S
S1348      H1349   1.405   1_545  S
C1353      C1354   1.403       .  A
C1353      C1358   1.424       .  A
C1354      C1355   1.424       .  A
C1354      H1363   1.078       .  S
C1355      C1356   1.434       .  A
C1355      S1359   1.804       .  S
C1356      C1357   1.411       .  A
C1357      C1358   1.407       .  A
C1357      H1364   1.072       .  S
C1358      S1360   1.813       .  S
S1359      H1362   1.397       .  S
S1360      H1361   1.406       .  S
C1365      C1366   1.407       .  A
C1365      C1370   1.402       .  A
C1366      C1367   1.432       .  A
C1366      H1375   1.080       .  S
C1367      C1368   1.461       .  A
C1367      S1371   1.804       .  S
C1368      C1369   1.445       .  A
C1369      C1370   1.416       .  A
C1369      H1376   1.060       .  S
C1370      S1372   1.806       .  S
S1371      H1374   1.408       .  S
S1372      H1373   1.405       .  S
C1377      C1378   1.435       .  A
C1377      C1382   1.443       .  A
C1378      C1379   1.411       .  A
C1378      H1387   1.077       .  S
C1379      C1380   1.402       .  A
C1379      S1383   1.804       .  S
C1380      C1381   1.406       .  A
C1381      C1382   1.419       .  A
C1381      H1388   1.081       .  S
C1382      S1384   1.814       .  S
S1383      H1386   1.406   1_554  S
S1384      H1385   1.406       .  S
C1389      C1390   1.424       .  A
C1389      C1394   1.442       .  A
C1390      C1391   1.429       .  A
C1390      H1399   1.057       .  S
C1391      C1392   1.419       .  A
C1391      S1395   1.793       .  S
C1392      C1393   1.434       .  A
C1393      C1394   1.450       .  A
C1393      H1400   1.081       .  S
C1394      S1396   1.798       .  S
S1395      H1398   1.402       .  S
S1396      H1397   1.407       .  S
C1401      C1402   1.422       .  A
C1401      C1406   1.434       .  A
C1402      C1403   1.426       .  A
C1402      H1411   1.061       .  S
C1403      C1404   1.424       .  A
C1403      S1407   1.799       .  S
C1404      C1405   1.428       .  A
C1405      C1406   1.427       .  A
C1405      H1412   1.068       .  S
C1406      S1408   1.793       .  S
S1407      H1410   1.408       .  S
S1408      H1409   1.406       .  S
C1413      C1414   1.413       .  A
C1413      C1418   1.448       .  A
C1414      C1415   1.425       .  A
C1414      H1423   1.079       .  S
C1415      C1416   1.430       .  A
C1415      S1419   1.800       .  S
C1416      C1417   1.413       .  A
C1417      C1418   1.432       .  A
C1417      H1424   1.084       .  S
C1418      S1420   1.812       .  S
S1419      H1422   1.407       .  S
S1420      H1421   1.392       .  S
C1425      C1426   1.419       .  A
C1425      C1430   1.415       .  A
C1426      C1427   1.441       .  A
C1426      H1435   1.083       .  S
C1427      C1428   1.446       .  A
C1427      S1431   1.799       .  S
C1428      C1429   1.430       .  A
C1429      C1430   1.417       .  A
C1429      H1436   1.078       .  S
C1430      S1432   1.807       .  S
S1431      H1434   1.407       .  S
S1432      H1433   1.397       .  S
C1437      C1438   1.423       .  A
C1437      C1442   1.440       .  A
C1438      C1439   1.426       .  A
C1438      H1447   1.081       .  S
C1439      C1440   1.428       .  A
C1439      S1443   1.805       .  S
C1440      C1441   1.395       .  A
C1441      C1442   1.404       .  A
C1441      H1448   1.083       .  S
C1442      S1444   1.802       .  S
S1443      H1446   1.397       .  S
S1444      H1445   1.407       .  S
C1449      C1450   1.419       .  A
C1449      C1454   1.460       .  A
C1450      C1451   1.443       .  A
C1450      H1459   1.082       .  S
C1451      C1452   1.447       .  A
C1451      S1455   1.795       .  S
C1452      C1453   1.378       .  A
C1453      C1454   1.375       .  A
C1453      H1460   1.084       .  S
C1454      S1456   1.800       .  S
S1455      H1458   1.405       .  S
S1456      H1457   1.389       .  S
C1461      C1462   1.441       .  A
C1461      C1466   1.408       .  A
C1462      C1463   1.395       .  A
C1462      H1471   1.076       .  S
C1463      C1464   1.414       .  A
C1463      S1467   1.789       .  S
C1464      C1465   1.433       .  A
C1465      C1466   1.435       .  A
C1465      H1472   1.057       .  S
C1466      S1468   1.800       .  S
S1467      H1470   1.405       .  S
S1468      H1469   1.406       .  S
C1473      C1474   1.412       .  A
C1473      C1478   1.399       .  A
C1474      C1475   1.445       .  A
C1474      H1483   1.081       .  S
C1475      C1476   1.465       .  A
C1475      S1479   1.805       .  S
C1476      C1477   1.432       .  A
C1477      C1478   1.401       .  A
C1477      H1484   1.074       .  S
C1478      S1480   1.807       .  S
S1479      H1482   1.407       .  S
S1480      H1481   1.397       .  S
C1485      C1486   1.430       .  A
C1485      C1490   1.421       .  A
C1486      C1487   1.380       .  A
C1486      H1495   1.063       .  S
C1487      C1488   1.397       .  A
C1487      S1491   1.801       .  S
C1488      C1489   1.433       .  A
C1489      C1490   1.439       .  A
C1489      H1496   1.082       .  S
C1490      S1492   1.799       .  S
S1491      H1494   1.408       .  S
S1492      H1493   1.407       .  S
C1497      C1498   1.418       .  A
C1497      C1502   1.466       .  A
C1498      C1499   1.417       .  A
C1498      H1507   1.059       .  S
C1499      C1500   1.425       .  A
C1499      S1503   1.810       .  S
C1500      C1501   1.392       .  A
C1501      C1502   1.408       .  A
C1501      H1508   1.085       .  S
C1502      S1504   1.818       .  S
S1503      H1506   1.399       .  S
S1504      H1505   1.374       .  S
C1509      C1510   1.423       .  A
C1509      C1514   1.428       .  A
C1510      C1511   1.407       .  A
C1510      H1519   1.073       .  S
C1511      C1512   1.414       .  A
C1511      S1515   1.807       .  S
C1512      C1513   1.409       .  A
C1513      C1514   1.415       .  A
C1513      H1520   1.079       .  S
C1514      S1516   1.799       .  S
S1515      H1518   1.395       .  S
S1516      H1517   1.407       .  S
C1521      C1522   1.411       .  A
C1521      C1526   1.437       .  A
C1522      C1523   1.425       .  A
C1522      H1531   1.080       .  S
C1523      C1524   1.438       .  A
C1523      S1527   1.789       .  S
C1524      C1525   1.398       .  A
C1525      C1526   1.404       .  A
C1525      H1532   1.077       .  S
C1526      S1528   1.793       .  S
S1527      H1530   1.394       .  S
S1528      H1529   1.405       .  S
C1533      C1534   1.407       .  A
C1533      C1538   1.421       .  A
C1534      C1535   1.419       .  A
C1534      H1543   1.082       .  S
C1535      C1536   1.432       .  A
C1535      S1539   1.792       .  S
C1536      C1537   1.422       .  A
C1537      C1538   1.432       .  A
C1537      H1544   1.078       .  S
C1538      S1540   1.799       .  S
S1539      H1542   1.401       .  S
S1540      H1541   1.406       .  S
C1545      C1546   1.388       .  A
C1545      C1550   1.413       .  A
C1546      C1547   1.401       .  A
C1546      H1555   1.082       .  S
C1547      C1548   1.445       .  A
C1547      S1551   1.781       .  S
C1548      C1549   1.408       .  A
C1549      C1550   1.413       .  A
C1549      H1556   1.082       .  S
C1550      S1552   1.799       .  S
S1551      H1554   1.408       .  S
S1552      H1553   1.409       .  S
C1557      C1558   1.414       .  A
C1557      C1562   1.410       .  A
C1558      C1559   1.420       .  A
C1558      H1567   1.078       .  S
C1559      C1560   1.439       .  A
C1559      S1563   1.809       .  S
C1560      C1561   1.428       .  A
C1561      C1562   1.430       .  A
C1561      H1568   1.077       .  S
C1562      S1564   1.804       .  S
S1563      H1566   1.403       .  S
S1564      H1565   1.401       .  S
C1569      C1570   1.432       .  A
C1569      C1574   1.464       .  A
C1570      C1571   1.411       .  A
C1570      H1579   1.066       .  S
C1571      C1572   1.413       .  A
C1571      S1575   1.793       .  S
C1572      C1573   1.406       .  A
C1573      C1574   1.433       .  A
C1573      H1580   1.082       .  S
C1574      S1576   1.808       .  S
S1575      H1578   1.409       .  S
S1576      H1577   1.408       .  S
C1581      C1582   1.404       .  A
C1581      C1586   1.450       .  A
C1582      C1583   1.427       .  A
C1582      H1591   1.077       .  S
C1583      C1584   1.442       .  A
C1583      S1587   1.798       .  S
C1584      C1585   1.399       .  A
C1585      C1586   1.422       .  A
C1585      H1592   1.084       .  S
C1586      S1588   1.788       .  S
S1587      H1590   1.389       .  S
S1588      H1589   1.390       .  S
C1593      C1594   1.414       .  A
C1593      C1598   1.435       .  A
C1594      C1595   1.398       .  A
C1594      H1603   1.077       .  S
C1595      C1596   1.407       .  A
C1595      S1599   1.777       .  S
C1596      C1597   1.424       .  A
C1597      C1598   1.434       .  A
C1597      H1604   1.074       .  S
C1598      S1600   1.800       .  S
S1599      H1602   1.402       .  S
S1600      H1601   1.402       .  S
C1605      C1606   1.414       .  A
C1605      C1610   1.431       .  A
C1606      C1607   1.425       .  A
C1606      H1615   1.080       .  S
C1607      C1608   1.428       .  A
C1607      S1611   1.796       .  S
C1608      C1609   1.402       .  A
C1609      C1610   1.411       .  A
C1609      H1616   1.083       .  S
C1610      S1612   1.801       .  S
S1611      H1614   1.406       .  S
S1612      H1613   1.401       .  S
C1617      C1618   1.423       .  A
C1617      C1622   1.442       .  A
C1618      C1619   1.400       .  A
C1618      H1627   1.075       .  S
C1619      C1620   1.404       .  A
C1619      S1623   1.800       .  S
C1620      C1621   1.407       .  A
C1621      C1622   1.423       .  A
C1621      H1628   1.076       .  S
C1622      S1624   1.809       .  S
S1623      H1626   1.402       .  S
S1624      H1625   1.407       .  S
C1629      C1630   1.432       .  A
C1629      C1634   1.414       .  A
C1630      C1631   1.420       .  A
C1630      H1639   1.075       .  S
C1631      C1632   1.414       .  A
C1631      S1635   1.796       .  S
C1632      C1633   1.417       .  A
C1633      C1634   1.419       .  A
C1633      H1640   1.076       .  S
C1634      S1636   1.805       .  S
S1635      H1638   1.406       .  S
S1636      H1637   1.407       .  S
C1641      C1642   1.418       .  A
C1641      C1646   1.448       .  A
C1642      C1643   1.413       .  A
C1642      H1651   1.081       .  S
C1643      C1644   1.421       .  A
C1643      S1647   1.803       .  S
C1644      C1645   1.405       .  A
C1645      C1646   1.418       .  A
C1645      H1652   1.084       .  S
C1646      S1648   1.807       .  S
S1647      H1650   1.405       .  S
S1648      H1649   1.390       .  S
C1653      C1654   1.414       .  A
C1653      C1658   1.406       .  A
C1654      C1655   1.426       .  A
C1654      H1663   1.083       .  S
C1655      C1656   1.431       .  A
C1655      S1659   1.793       .  S
C1656      C1657   1.433       .  A
C1657      C1658   1.404       .  A
C1657      H1664   1.076       .  S
C1658      S1660   1.801       .  S
S1659      H1662   1.407       .  S
S1660      H1661   1.401       .  S
C1665      C1666   1.397       .  A
C1665      C1670   1.399       .  A
C1666      C1667   1.409       .  A
C1666      H1675   1.082       .  S
C1667      C1668   1.445       .  A
C1667      S1671   1.796       .  S
C1668      C1669   1.397       .  A
C1669      C1670   1.389       .  A
C1669      H1676   1.064       .  S
C1670      S1672   1.789       .  S
S1671      H1674   1.407       .  S
S1672      H1673   1.401       .  S
C1677      C1678   1.367       .  A
C1677      C1682   1.417       .  A
C1678      C1679   1.384       .  A
C1678      H1687   1.086       .  S
C1679      C1680   1.477       .  A
C1679      S1683   1.825       .  S
C1680      C1681   1.393       .  A
C1681      C1682   1.384       .  A
C1681      H1688   1.080       .  S
C1682      S1684   1.794       .  S
S1683      H1686   1.387       .  S
S1684      H1685   1.407       .  S
C1689      C1690   1.447       .  A
C1689      C1694   1.424       .  A
C1690      C1691   1.387       .  A
C1690      H1699   1.078       .  S
C1691      C1692   1.383       .  A
C1691      S1695   1.803       .  S
C1692      C1693   1.381       .  A
C1693      C1694   1.392       .  A
C1693      H1700   1.054       .  S
C1694      S1696   1.802       .  S
S1695      H1698   1.403       .  S
S1696      H1697   1.403       .  S
C1701      C1702   1.407       .  A
C1701      C1706   1.363       .  A
C1702      C1703   1.411       .  A
C1702      H1711   1.073       .  S
C1703      C1704   1.420       .  A
C1703      S1707   1.800       .  S
C1704      C1705   1.443       .  A
C1705      C1706   1.388       .  A
C1705      H1712   1.077       .  S
C1706      S1708   1.806       .  S
S1707      H1710   1.392       .  S
S1708      H1709   1.409       .  S
C1713      C1714   1.410       .  A
C1713      C1718   1.415       .  A
C1714      C1715   1.399       .  A
C1714      H1723   1.080       .  S
C1715      C1716   1.418       .  A
C1715      S1719   1.794       .  S
C1716      C1717   1.404       .  A
C1717      C1718   1.402       .  A
C1717      H1724   1.079       .  S
C1718      S1720   1.782       .  S
S1719      H1722   1.408       .  S
S1720      H1721   1.404       .  S
C1725      C1726   1.398       .  A
C1725      C1730   1.407       .  A
C1726      C1727   1.386       .  A
C1726      H1735   1.084       .  S
C1727      C1728   1.433       .  A
C1727      S1731   1.816       .  S
C1728      C1729   1.411       .  A
C1729      C1730   1.395       .  A
C1729      H1736   1.082       .  S
C1730      S1732   1.802       .  S
S1731      H1734   1.388       .  S
S1732      H1733   1.408       .  S
C1737      C1738   1.417       .  A
C1737      C1742   1.393       .  A
C1738      C1739   1.392       .  A
C1738      H1747   1.084       .  S
C1739      C1740   1.399       .  A
C1739      S1743   1.805       .  S
C1740      C1741   1.405       .  A
C1741      C1742   1.388       .  A
C1741      H1748   1.079       .  S
C1742      S1744   1.778       .  S
S1743      H1746   1.406       .  S
S1744      H1745   1.407       .  S
C1749      C1750   1.420       .  A
C1749      C1754   1.398       .  A
C1750      C1751   1.382       .  A
C1750      H1759   1.067       .  S
C1751      C1752   1.390       .  A
C1751      S1755   1.796       .  S
C1752      C1753   1.428       .  A
C1753      C1754   1.416       .  A
C1753      H1760   1.068       .  S
C1754      S1756   1.806       .  S
S1755      H1758   1.406       .  S
S1756      H1757   1.407       .  S
C1761      C1762   1.410       .  A
C1761      C1766   1.447       .  A
C1762      C1763   1.420       .  A
C1762      H1771   1.080       .  S
C1763      C1764   1.429       .  A
C1763      S1767   1.798       .  S
C1764      C1765   1.395       .  A
C1765      C1766   1.403       .  A
C1765      H1772   1.081       .  S
C1766      S1768   1.812       .  S
S1767      H1770   1.393       .  S
S1768      H1769   1.406       .  S
C1773      C1774   1.428       .  A
C1773      C1778   1.472       .  A
C1774      C1775   1.415       .  A
C1774      H1783   1.074       .  S
C1775      C1776   1.418       .  A
C1775      S1779   1.811       .  S
C1776      C1777   1.395       .  A
C1777      C1778   1.423       .  A
C1777      H1784   1.080       .  S
C1778      S1780   1.813       .  S
S1779      H1782   1.404       .  S
S1780      H1781   1.391       .  S
C1785      C1786   1.409       .  A
C1785      C1790   1.409       .  A
C1786      C1787   1.402       .  A
C1786      H1795   1.077       .  S
C1787      C1788   1.404       .  A
C1787      S1791   1.792       .  S
C1788      C1789   1.419       .  A
C1789      C1790   1.388       .  A
C1789      H1796   1.084       .  S
C1790      S1792   1.789       .  S
S1791      H1794   1.409       .  S
S1792      H1793   1.404       .  S
