geometry optimzed in LAMMPS
_audit_creation_date              2020-12-01 
_audit_creation_method            'lammps2cif' 
_symmetry_space_group_name_H-M    'P1' 
_symmetry_Int_Tables_number       1 
_symmetry_cell_setting            triclinic 
loop_ 
_symmetry_equiv_pos_as_xyz 
  x,y,z 
_cell_length_a                    35.76968672 
_cell_length_b                    34.62746278286288 
_cell_length_c                    36.3919220088364 
_cell_angle_alpha                 92.57554150664342 
_cell_angle_beta                  90.67983627259734 
_cell_angle_gamma                 90.51637120759041 
loop_ 
_atom_site_label 
_atom_site_type_symbol 
_atom_site_fract_x 
_atom_site_fract_y 
_atom_site_fract_z 
_atom_site_charge 
C1          C  0.20383238  0.21653372  0.19321092     0.86700
C2          C  0.22930611  0.24886063  0.17879490    -0.53600
C3          C  0.24684835  0.27117979  0.20567734     0.09600
C4          C  0.23716201  0.26013449  0.24472144     0.20500
C5          C  0.22938651  0.19436932  0.21924035    -0.54300
C6          C  0.24688192  0.21691205  0.24638044     0.09700
C7          C  0.17671979  0.23894113  0.21916169    -0.53800
C8          C  0.19418007  0.26175468  0.24607251     0.10200
H9          H  0.23339529  0.25472157  0.15017859     0.14800
H10         H  0.25143484  0.27927336  0.26585285     0.00500
H11         H  0.23308981  0.16330663  0.21632255     0.15100
H12         H  0.14653255  0.23798838  0.21569229     0.14900
C13         C  0.10205581  0.46686254  0.43137701     0.30200
C14         C  0.10146448  0.53389285  0.47605355     0.30200
C15         C  0.11986347  0.50315191  0.41598130    -0.06000
C16         C  0.06276485  0.48210921  0.44201147    -0.06800
C17         C  0.12069905  0.46481617  0.46946534    -0.06700
C18         C  0.12093362  0.53656602  0.43854849    -0.06000
C19         C  0.06271710  0.51621557  0.46480745    -0.06800
C20         C  0.12172450  0.49870956  0.49155494    -0.06700
C21         C  0.13846269  0.56439328  0.41856982    -0.32100
N22         N  0.14497906  0.54980590  0.38386259     0.14400
C23         C  0.13349878  0.51225693  0.38227860    -0.32100
H24         H  0.13267099  0.49320160  0.35794265     0.16400
C25         C  0.02582835  0.52552632  0.47124273    -0.31100
N26         N  0.00358707  0.49855093  0.45326216     0.13200
C27         C  0.02560003  0.47206736  0.43560022    -0.31000
C28         C  0.14056675  0.48991473  0.52343015    -0.31300
N29         N  0.14753079  0.45149518  0.52262244     0.13700
H30         H  0.14890107  0.50959097  0.54593945     0.16300
C31         C  0.13594258  0.43592168  0.48954631    -0.31300
H32         H  0.13711266  0.40554337  0.48127360     0.16300
H33         H  0.01473379  0.44750233  0.41967219     0.16300
H34         H  0.14558769  0.59345050  0.42834998     0.16400
H35         H  0.01597923  0.55054241  0.48703949     0.16300
C36         C  0.18471499  0.81525260  0.69049095     0.86700
C37         C  0.21042151  0.78790329  0.71097560    -0.53600
C38         C  0.23296022  0.76510512  0.68907158     0.09600
C39         C  0.22660758  0.77154000  0.64772512     0.20500
C40         C  0.21103912  0.83799961  0.66578965    -0.54300
C41         C  0.23356785  0.81521576  0.64398521     0.09700
C42         C  0.16263016  0.78854109  0.66282167    -0.53800
C43         C  0.18420104  0.76470081  0.64105334     0.10200
H44         H  0.21022010  0.78694298  0.74072497     0.14800
H45         H  0.24428201  0.75419416  0.62871853     0.00500
H46         H  0.21294304  0.86927208  0.66657056     0.15100
H47         H  0.13246705  0.78854929  0.66002181     0.14900
C48         C  0.44823470  0.12956230  0.42471713     0.30200
C49         C  0.50582465  0.12381440  0.47528345     0.30200
C50         C  0.44463059  0.15366482  0.46088917    -0.06000
C51         C  0.45566042  0.08823148  0.43808128    -0.06800
C52         C  0.48771579  0.14076556  0.41181216    -0.06700
C53         C  0.47383991  0.15067695  0.48629188    -0.06000
C54         C  0.48518668  0.08567960  0.46383080    -0.06800
C55         C  0.51686499  0.13807226  0.43728741    -0.06700
C56         C  0.46060132  0.16300967  0.52004071    -0.32100
N57         N  0.42460588  0.17364892  0.51598350     0.14400
C58         C  0.41418727  0.16743957  0.48028712    -0.32100
H59         H  0.38574213  0.16904796  0.47002331     0.16400
C60         C  0.49241498  0.04702241  0.46750189    -0.31100
N61         N  0.46761878  0.02614642  0.44628075     0.13200
C62         C  0.44591024  0.05042178  0.42723396    -0.31000
C63         C  0.54945319  0.14666112  0.41917301    -0.31300
N64         N  0.54088718  0.15519060  0.38397797     0.13700
H65         H  0.57739464  0.14677869  0.43069653     0.16300
C66         C  0.50335855  0.15084630  0.37913559    -0.31300
H67         H  0.48856548  0.15420349  0.35339307     0.16300
H68         H  0.42632036  0.04099328  0.40576992     0.16300
H69         H  0.47484874  0.16088416  0.54627344     0.16400
H70         H  0.51494386  0.03476193  0.48311987     0.16300
C71         C  0.76162983  0.26295807  0.15227205     0.86700
C72         C  0.78731444  0.28679648  0.17887266    -0.53600
C73         C  0.76882243  0.31063662  0.20313426     0.09600
C74         C  0.72595083  0.30901780  0.19862978     0.20500
C75         C  0.73419027  0.24217473  0.17704774    -0.54300
C76         C  0.71579897  0.26599316  0.20143081     0.09700
C77         C  0.73732982  0.29341420  0.13384245    -0.53800
C78         C  0.71806772  0.31702044  0.15789351     0.10200
H79         H  0.81754250  0.28407064  0.17938176     0.14800
H80         H  0.71085656  0.32828946  0.21853714     0.00500
H81         H  0.73016151  0.21100379  0.17582610     0.15100
H82         H  0.73435475  0.29639371  0.10455462     0.14900
C83         C  0.21543625  0.23761787  0.77591604     0.86700
C84         C  0.19630497  0.26432235  0.74879471    -0.53600
C85         C  0.22007699  0.28935640  0.73276798     0.09600
C86         C  0.26085162  0.28569695  0.74496645     0.20500
C87         C  0.24664509  0.21800823  0.75276555    -0.54300
C88         C  0.26987449  0.24316919  0.73596913     0.09700
C89         C  0.23700293  0.26501300  0.80346862    -0.53800
C90         C  0.26073079  0.28997057  0.78707524     0.10200
H91         H  0.16666678  0.26267370  0.74197809     0.14800
H92         H  0.27950784  0.30660307  0.73176761     0.00500
H93         H  0.24994733  0.18726201  0.74804174     0.15100
H94         H  0.23435691  0.26419278  0.83311005     0.14900
C95         C  0.86785572  0.51158158  0.48656216     0.30200
C96         C  0.86891404  0.46371405  0.42476105     0.30200
C97         C  0.83761271  0.51853029  0.45759400    -0.06000
C98         C  0.90450700  0.51324315  0.46398428    -0.06800
C99         C  0.86435418  0.46802853  0.49274773    -0.06700
C100        C  0.83839878  0.49427568  0.42604642    -0.06000
C101        C  0.90502554  0.48843422  0.43165522    -0.06800
C102        C  0.86535055  0.44401830  0.46129725    -0.06700
C103        C  0.82526526  0.51541795  0.39749612    -0.32100
N104        N  0.81563229  0.55092954  0.41064365     0.14400
C105        C  0.82351541  0.55337559  0.44701427    -0.32100
H106        H  0.82446656  0.58027092  0.46338557     0.16400
C107        C  0.94228651  0.47996315  0.42541800    -0.31100
N108        N  0.96404639  0.49950036  0.45092641     0.13200
C109        C  0.94146719  0.51799811  0.47538681    -0.31000
C110        C  0.85981164  0.40677262  0.47153429    -0.31300
N111        N  0.85426335  0.40750729  0.50823817     0.13700
H112        H  0.85782780  0.38114954  0.45342622     0.16300
C113        C  0.85763212  0.44460951  0.52175727    -0.31300
H114        H  0.85324198  0.45393049  0.55014639     0.16300
H115        H  0.95109025  0.53051876  0.50159890     0.16300
H116        H  0.82742852  0.50724718  0.36852734     0.16400
H117        H  0.95258467  0.45862747  0.40558606     0.16300
C118        C  0.77516806  0.83440949  0.22127486     0.86700
C119        C  0.74563494  0.81263801  0.19684641    -0.53600
C120        C  0.72053827  0.79178771  0.21590998     0.09600
C121        C  0.72726493  0.79406403  0.25749386     0.20500
C122        C  0.75250548  0.85853065  0.24967280    -0.54300
C123        C  0.72775734  0.83713142  0.26877647     0.09700
C124        C  0.79293116  0.80191160  0.24344725    -0.53800
C125        C  0.76760762  0.78093828  0.26224824     0.10200
H126        H  0.74487742  0.81344381  0.16705649     0.14800
H127        H  0.70666854  0.77706495  0.27286515     0.00500
H128        H  0.75587649  0.88956311  0.25433983     0.15100
H129        H  0.82201409  0.79374334  0.24268418     0.14900
C130        C  0.74107824  0.18059362  0.72967949     0.86700
C131        C  0.71590201  0.21436604  0.74344757    -0.53600
C132        C  0.69622716  0.23113385  0.71622491     0.09600
C133        C  0.70318995  0.21320428  0.67790385     0.20500
C134        C  0.71432781  0.15274677  0.70748552    -0.54300
C135        C  0.69468044  0.17022031  0.68051507     0.09700
C136        C  0.76554975  0.19922472  0.70042112    -0.53800
C137        C  0.74559249  0.21609351  0.67325201     0.10200
H138        H  0.71384612  0.22544158  0.77156819     0.14800
H139        H  0.68685225  0.22665764  0.65577395     0.00500
H140        H  0.71149178  0.12218442  0.71244057     0.15100
H141        H  0.79586213  0.20050578  0.70213362     0.14900
C142        C  0.44953418  0.88588481  0.47956807     0.30200
C143        C  0.50789242  0.88697533  0.43128654     0.30200
C144        C  0.44468811  0.86069863  0.44372771    -0.06000
C145        C  0.45849100  0.92585964  0.46353552    -0.06800
C146        C  0.48767597  0.87321664  0.49438014    -0.06700
C147        C  0.47445341  0.86077583  0.41906576    -0.06000
C148        C  0.48848907  0.92605966  0.43890862    -0.06800
C149        C  0.51684966  0.87390510  0.46981000    -0.06700
C150        C  0.45884746  0.85266688  0.38448581    -0.32100
N151        N  0.42157111  0.84611770  0.38740485     0.14400
C152        C  0.41272111  0.85301457  0.42309431    -0.32100
H153        H  0.38455600  0.85670767  0.43304735     0.16400
C154        C  0.49255128  0.96317874  0.42726320    -0.31100
N155        N  0.46617584  0.98548897  0.44372564     0.13200
C156        C  0.44503918  0.96333756  0.46553674    -0.31000
C157        C  0.54800383  0.86005965  0.48695097    -0.31300
N158        N  0.53876708  0.85073921  0.52149080     0.13700
H159        H  0.57546139  0.85690144  0.47506273     0.16300
C160        C  0.50194349  0.85892401  0.52652976    -0.31300
H161        H  0.48653563  0.85393984  0.55131681     0.16300
H162        H  0.42228957  0.97431102  0.48209099     0.16300
H163        H  0.47339188  0.85442552  0.35874767     0.16400
H164        H  0.51368571  0.97369060  0.40909395     0.16300
C165        C  0.19755525  0.76877832  0.12958605     0.86700
C166        C  0.17935463  0.73545974  0.14970351    -0.53600
C167        C  0.20386683  0.71380233  0.16906359     0.09600
C168        C  0.24492076  0.72634776  0.16433861     0.20500
C169        C  0.22132837  0.79121145  0.15913744    -0.54300
C170        C  0.24606144  0.76908665  0.17753465     0.09700
C171        C  0.22657472  0.74848907  0.10435695    -0.53800
C172        C  0.25144775  0.72640836  0.12266644     0.10200
H173        H  0.14939009  0.73042204  0.14910450     0.14800
H174        H  0.26535424  0.70835191  0.17864573     0.00500
H175        H  0.21746131  0.82174565  0.16576352     0.15100
H176        H  0.22843364  0.75111410  0.07495038     0.14900
C177        C  0.78417380  0.75054813  0.73769382     0.86700
C178        C  0.80407452  0.72123621  0.71147083    -0.53600
C179        C  0.78042223  0.69833895  0.69010832     0.09600
C180        C  0.73875743  0.70622229  0.69736472     0.20500
C181        C  0.75821665  0.77256717  0.71206612    -0.54300
C182        C  0.73420980  0.74961232  0.69150089     0.09700
C183        C  0.75762030  0.72531005  0.75995149    -0.53800
C184        C  0.73333701  0.70199525  0.73916019     0.10200
H185        H  0.83397663  0.71929343  0.70808402     0.14800
H186        H  0.72048956  0.68754491  0.67943288     0.00500
H187        H  0.75811405  0.80387033  0.71100107     0.15100
H188        H  0.75737831  0.72716812  0.78978048     0.14900
C189        C  0.51773283  0.49993419  0.06801795     0.30200
C190        C  0.45844989  0.54920538  0.05898504     0.30200
C191        C  0.52142388  0.54045535  0.08666528    -0.06000
C192        C  0.50866470  0.51031978  0.02746576    -0.06800
C193        C  0.47936016  0.48598078  0.08149431    -0.06700
C194        C  0.49138137  0.56524428  0.08283761    -0.06000
C195        C  0.47820092  0.53534910  0.02380398    -0.06800
C196        C  0.44960352  0.51121051  0.07791852    -0.06700
C197        C  0.50136802  0.59980404  0.10088873    -0.32100
N198        N  0.53664241  0.59667219  0.11425464     0.14400
C199        C  0.54926821  0.56073120  0.10560221    -0.32100
H200        H  0.57721606  0.55068811  0.11133308     0.16400
C201        C  0.47374064  0.54303365  0.98741846    -0.31100
N202        N  0.50063951  0.52422895  0.96830428     0.13200
C203        C  0.52187386  0.50387580  0.99177143    -0.31000
C204        C  0.42031521  0.49615629  0.09743677    -0.31300
N205        N  0.43062282  0.46176654  0.11084409     0.13700
H206        H  0.39349133  0.50946366  0.10200549     0.16300
C207        C  0.46667858  0.45531483  0.10112094    -0.31300
H208        H  0.48300700  0.43080341  0.10902711     0.16300
H209        H  0.54429399  0.48541146  0.98260090     0.16300
H210        H  0.48489311  0.62575492  0.10378252     0.16400
H211        H  0.45204827  0.56027705  0.97547109     0.16300
C212        C  0.51524420  0.54594961  0.83200838     0.30200
C213        C  0.45520386  0.49606726  0.83826836     0.30200
C214        C  0.51574861  0.50841428  0.80755134    -0.06000
C215        C  0.50844960  0.53061136  0.87071548    -0.06800
C216        C  0.47615770  0.56206590  0.82149057    -0.06700
C217        C  0.48543395  0.48350898  0.81097640    -0.06000
C218        C  0.47777151  0.50562422  0.87369533    -0.06800
C219        C  0.44576907  0.53704748  0.82621797    -0.06700
C220        C  0.49323022  0.44973126  0.79154617    -0.32100
N221        N  0.52765291  0.45289706  0.77657388     0.14400
C222        C  0.54126243  0.48894251  0.78556056    -0.32100
H223        H  0.56911805  0.49888448  0.77946103     0.16400
C224        C  0.47261486  0.50035158  0.91051256    -0.31100
N225        N  0.50026005  0.51923717  0.92974879     0.13200
C226        C  0.52194099  0.53865409  0.90615370    -0.31000
C227        C  0.41399078  0.55585198  0.81542800    -0.31300
N228        N  0.42392116  0.58979044  0.80101898     0.13700
H229        H  0.38550433  0.54551929  0.81730591     0.16300
C230        C  0.46173037  0.59334253  0.80355592    -0.31300
H231        H  0.47737328  0.61547516  0.79034913     0.16300
H232        H  0.54405436  0.55888732  0.91432105     0.16300
H233        H  0.47623100  0.42368662  0.79077861     0.16400
H234        H  0.44933321  0.48577244  0.92282118     0.16300
O235        O  0.01800727  0.06971303  0.99455292    -0.80000
O236        O  0.94472047  0.06229765  0.91646804    -0.80000
O237        O  0.03239701  0.04750213  0.91680153    -0.80000
O238        O  0.89748053  0.02775164  0.99849743    -0.79900
O239        O  0.99760049  0.03928612  0.86601347    -0.80100
O240        O  0.94261148  0.07164544  0.00349152    -0.80000
O241        O  0.89856408  0.02117450  0.92463942    -0.80000
O242        O  0.05989987  0.02682666  0.98438616    -0.80000
C243        C  0.05130476  0.05950790  0.99867038     1.09700
C244        C  0.91037371  0.05328871  0.91317928     1.09600
C245        C  0.02480277  0.05605360  0.88322133     1.09700
C246        C  0.90849508  0.06239099  0.00617270     1.09600
O247        O  0.94528685  0.00151912  0.04200508    -0.80000
O248        O  0.01286639  0.97106926  0.89540173    -0.80100
O249        O  0.02277157  0.95415267  0.97925472    -0.80000
O250        O  0.93374876  0.94563406  0.92687131    -0.80000
O251        O  0.94147157  0.98539501  0.88241789    -0.80000
O252        O  0.01901784  0.99366695  0.02896136    -0.80000
O253        O  0.93289818  0.95277188  0.00314977    -0.79900
O254        O  0.06769966  0.97847524  0.92304574    -0.80000
Co255      Co  0.98109130  0.03372510  0.01407305     1.51500
Co256      Co  0.97983146  0.01892793  0.91032192     1.51700
Co257      Co  0.02475927  0.99847490  0.94776363     1.51600
Co258      Co  0.91922064  0.98701491  0.96318929     1.51500
O259        O  0.97211265  0.00884548  0.96353355    -1.41900
C260        C  0.93322909  0.96727152  0.03568217     1.09600
C261        C  0.04821516  0.96378771  0.89658322     1.09700
C262        C  0.02740568  0.96087276  0.01361228     1.09700
C263        C  0.93147119  0.95240721  0.89304402     1.09600
C264        C  0.90122760  0.85523729  0.84947007    -0.27500
C265        C  0.87486888  0.86616728  0.82308593     0.02200
C266        C  0.86949110  0.90588118  0.81785142     0.30200
C267        C  0.88944121  0.93382479  0.83954441    -0.19200
C268        C  0.91464955  0.92279296  0.86697929    -0.28600
C269        C  0.92093436  0.88311150  0.87130579     0.44300
C270        C  0.85246775  0.83595254  0.80199979     0.05500
O271        O  0.84430926  0.91768650  0.79205013    -0.57200
H272        H  0.88409167  0.96417686  0.83588827     0.18400
O273        O  0.94592796  0.87121300  0.89723081    -0.63900
H274        H  0.90584211  0.82489907  0.85384204     0.16800
C275        C  0.86984161  0.80619196  0.78110882     0.29100
C276        C  0.84825414  0.77799515  0.76148323    -0.24800
C277        C  0.80872678  0.77871930  0.76181940    -0.24100
C278        C  0.79162523  0.80798677  0.78414949     0.40500
C279        C  0.81332877  0.83631369  0.80346680    -0.26500
O280        O  0.90808516  0.80467940  0.77918796    -0.58400
H281        H  0.86329228  0.75609264  0.74601372     0.16200
O282        O  0.75341412  0.80996400  0.78629428    -0.59800
H283        H  0.79943791  0.85860203  0.81993231     0.14600
H284        H  0.97068019  0.87205531  0.88522495     0.46500
H285        H  0.91486588  0.82176765  0.75911114     0.41900
H286        H  0.74707742  0.79877546  0.81006686     0.45300
H287        H  0.85831165  0.91761489  0.76870031     0.36800
C288        C  0.64044757  0.64875561  0.75570749    -0.27500
C289        C  0.64550248  0.63617636  0.79141922     0.02200
C290        C  0.68026491  0.64305191  0.80912481     0.30200
C291        C  0.70870738  0.66336856  0.79150449    -0.19200
C292        C  0.70337846  0.67733953  0.75591707    -0.28600
C293        C  0.66875378  0.66857675  0.73781426     0.44300
C294        C  0.61393553  0.61584906  0.80910745     0.05500
O295        O  0.68655654  0.63064191  0.84389210    -0.57200
H296        H  0.73504108  0.66817836  0.80600163     0.18400
O297        O  0.66107281  0.68044371  0.70320062    -0.63900
H298        H  0.61412417  0.64306491  0.74133126     0.16800
C299        C  0.57865068  0.63325612  0.81217412     0.29100
C300        C  0.54770252  0.61184184  0.82344279    -0.24800
C301        C  0.55031761  0.57202381  0.82923679    -0.24100
C302        C  0.58678876  0.55662144  0.83187427     0.40500
C303        C  0.61803016  0.57807496  0.82093164    -0.26500
O304        O  0.57429069  0.67146377  0.80468037    -0.58400
H305        H  0.52206337  0.62708733  0.82818325     0.16200
O306        O  0.59214264  0.52008409  0.84386484    -0.59800
H307        H  0.64524434  0.56461048  0.82037642     0.14600
H308        H  0.66088674  0.65657599  0.68702375     0.46500
H309        H  0.56076613  0.67135168  0.78071915     0.41900
H310        H  0.59732811  0.52365951  0.87062847     0.45300
H311        H  0.67951992  0.65266026  0.86066050     0.36800
C312        C  0.11622069  0.83961611  0.12049193    -0.27500
C313        C  0.11604478  0.84649065  0.08294012     0.02200
C314        C  0.14191581  0.82746550  0.05990506     0.30200
C315        C  0.16781779  0.80208833  0.07455525    -0.19200
C316        C  0.16851202  0.79501044  0.11241413    -0.28600
C317        C  0.14196636  0.81417059  0.13527644     0.44300
C318        C  0.09006712  0.87504846  0.06817859     0.05500
O319        O  0.14344327  0.83524798  0.02329511    -0.57200
H320        H  0.18736531  0.78885619  0.05571303     0.18400
O321        O  0.14093128  0.80806438  0.17227458    -0.63900
H322        H  0.09642686  0.85424237  0.13849340     0.16800
C323        C  0.06320283  0.86404469  0.04110039     0.29100
C324        C  0.04158228  0.89223658  0.02476258    -0.24800
C325        C  0.04643194  0.93153247  0.03506055    -0.24100
C326        C  0.07232958  0.94233245  0.06329220     0.40500
C327        C  0.09371959  0.91407322  0.07980147    -0.26500
O328        O  0.05771334  0.82576054  0.03086066    -0.58400
H329        H  0.02151764  0.88341369  0.00339713     0.16200
O330        O  0.07843154  0.98049646  0.07356918    -0.59800
H331        H  0.11440867  0.92282347  0.10060446     0.14600
H332        H  0.15121196  0.83204245  0.18462855     0.46500
H333        H  0.06592404  0.82294401  0.00491492     0.41900
H334        H  0.10009117  0.98863336  0.05889608     0.45300
H335        H  0.13462875  0.81127698  0.00984907     0.36800
C336        C  0.35987415  0.59207855  0.05312396    -0.27500
C337        C  0.36814472  0.63172129  0.05776681     0.02200
C338        C  0.40521602  0.64418403  0.05274133     0.30200
C339        C  0.43383843  0.61700377  0.04928943    -0.19200
C340        C  0.42631573  0.57731893  0.05249179    -0.28600
C341        C  0.38859694  0.56512643  0.04856390     0.44300
C342        C  0.33903128  0.65903811  0.07134302     0.05500
O343        O  0.41391875  0.68283021  0.05268848    -0.57200
H344        H  0.46211656  0.62723900  0.04549496     0.18400
O345        O  0.37932161  0.52740083  0.03941465    -0.63900
H346        H  0.33128797  0.58173966  0.05435428     0.16800
C347        C  0.30323214  0.66016234  0.05488555     0.29100
C348        C  0.27524917  0.68314472  0.07116229    -0.24800
C349        C  0.28224506  0.70479759  0.10416728    -0.24100
C350        C  0.31852721  0.70485158  0.11973198     0.40500
C351        C  0.34639926  0.68203117  0.10345211    -0.26500
O352        O  0.29558774  0.63940072  0.02262465    -0.58400
H353        H  0.24767395  0.68306512  0.05852682     0.16200
O354        O  0.32715216  0.72690051  0.15099985    -0.59800
H355        H  0.37369183  0.68142548  0.11665225     0.14600
H356        H  0.38461716  0.52390997  0.01278764     0.46500
H357        H  0.27833507  0.61833839  0.02928999     0.41900
H358        H  0.33061112  0.75357657  0.14272317     0.45300
H359        H  0.41310248  0.68932030  0.02641205     0.36800
C360        C  0.61635269  0.79271786  0.56120082    -0.27500
C361        C  0.61800249  0.80770859  0.59762388     0.02200
C362        C  0.59197969  0.83591514  0.60925685     0.30200
C363        C  0.56526365  0.84916624  0.58429073    -0.19200
C364        C  0.56415492  0.83468164  0.54764298    -0.28600
C365        C  0.58964981  0.80574500  0.53640536     0.44300
C366        C  0.64770076  0.79414491  0.62265536     0.05500
O367        O  0.59399876  0.85235540  0.64425002    -0.57200
H368        H  0.54620582  0.87174092  0.59319331     0.18400
O369        O  0.58876490  0.78999629  0.50115055    -0.63900
H370        H  0.63592835  0.77074486  0.55195289     0.16800
C371        C  0.63887871  0.77677045  0.65574565     0.29100
C372        C  0.66747353  0.76327992  0.67824635    -0.24800
C373        C  0.70493348  0.76554162  0.66769001    -0.24100
C374        C  0.71404269  0.78366002  0.63514247     0.40500
C375        C  0.68540825  0.79772892  0.61277896    -0.26500
O376        O  0.60241175  0.77239778  0.66612209    -0.58400
H377        H  0.66037066  0.75142748  0.70428083     0.16200
O378        O  0.75083172  0.78865101  0.62580072    -0.59800
H379        H  0.69263756  0.81156250  0.58766718     0.14600
H380        H  0.56843765  0.77033527  0.50078125     0.46500
H381        H  0.59470969  0.74638506  0.65615084     0.41900
H382        H  0.75320221  0.77776683  0.60028833     0.45300
H383        H  0.57142660  0.84306093  0.65679990     0.36800
C384        C  0.33574812  0.81025914  0.33511026    -0.27500
C385        C  0.34416276  0.81965217  0.29900565     0.02200
C386        C  0.37827976  0.83879378  0.29248520     0.30200
C387        C  0.40305628  0.84811629  0.32169603    -0.19200
C388        C  0.39519669  0.83746989  0.35767593    -0.28600
C389        C  0.36129805  0.81762985  0.36390046     0.44300
C390        C  0.31804678  0.80746932  0.26838881     0.05500
O391        O  0.38816235  0.84786221  0.25758689    -0.57200
H392        H  0.42859332  0.86350518  0.31589600     0.18400
O393        O  0.35317460  0.80405085  0.39773036    -0.63900
H394        H  0.30949482  0.79614376  0.34102825     0.16800
C395        C  0.30244827  0.76985226  0.26616431     0.29100
C396        C  0.27809816  0.75871460  0.23735337    -0.24800
C397        C  0.27004444  0.78366755  0.20900630    -0.24100
C398        C  0.28579915  0.82128463  0.21099528     0.40500
C399        C  0.30886350  0.83310217  0.24087283    -0.26500
O400        O  0.31130077  0.74325956  0.29163291    -0.58400
H401        H  0.26569889  0.73009050  0.23733801     0.16200
O402        O  0.27972589  0.84655661  0.18365583    -0.59800
H403        H  0.31993568  0.86234971  0.24225661     0.14600
H404        H  0.36498803  0.77823639  0.39809308     0.46500
H405        H  0.33544261  0.73216513  0.28352736     0.41900
H406        H  0.29799609  0.83935492  0.16431447     0.45300
H407        H  0.40137559  0.82480152  0.24739834     0.36800
C408        C  0.87294922  0.12388637  0.84470068    -0.27500
C409        C  0.83583424  0.11090978  0.84051393     0.02200
C410        C  0.82248733  0.08200171  0.86293923     0.30200
C411        C  0.84660966  0.06520156  0.88803235    -0.19200
C412        C  0.88439997  0.07680027  0.89135743    -0.28600
C413        C  0.89721266  0.10720916  0.86995829     0.44300
C414        C  0.81106839  0.12771241  0.81273490     0.05500
O415        O  0.78641277  0.06851659  0.85904810    -0.57200
H416        H  0.83586123  0.04198168  0.90400107     0.18400
O417        O  0.93347899  0.12032638  0.87280165    -0.63900
H418        H  0.88326375  0.14666960  0.82793710     0.16800
C419        C  0.78205128  0.15243545  0.82361200     0.29100
C420        C  0.75886387  0.16839522  0.79718837    -0.24800
C421        C  0.76427004  0.16066163  0.75912992    -0.24100
C422        C  0.79237259  0.13388726  0.74865114     0.40500
C423        C  0.81585262  0.11829712  0.77526189    -0.26500
O424        O  0.77604589  0.16116197  0.86020250    -0.58400
H425        H  0.73655027  0.18632886  0.80743640     0.16200
O426        O  0.79774234  0.12342574  0.71230946    -0.59800
H427        H  0.83770035  0.09852115  0.76663673     0.14600
H428        H  0.94700410  0.10597071  0.85298792     0.46500
H429        H  0.79172884  0.18438544  0.86625798     0.41900
H430        H  0.78288622  0.09933396  0.70780474     0.45300
H431        H  0.77249064  0.08162055  0.87937346     0.36800
C432        C  0.65860307  0.32861714  0.74914235    -0.27500
C433        C  0.62263472  0.32716864  0.73342800     0.02200
C434        C  0.61113855  0.29448408  0.71180318     0.30200
C435        C  0.63561405  0.26360428  0.70608836    -0.19200
C436        C  0.67128726  0.26450025  0.72254081    -0.28600
C437        C  0.68295422  0.29754248  0.74384735     0.44300
C438        C  0.59643549  0.35873872  0.74207416     0.05500
O439        O  0.57613503  0.29267919  0.69599176    -0.57200
H440        H  0.62639573  0.23854427  0.68939343     0.18400
O441        O  0.71809707  0.29992732  0.75933508    -0.63900
H442        H  0.66754199  0.35367537  0.76601283     0.16800
C443        C  0.56842183  0.35376812  0.76814158     0.29100
C444        C  0.54523879  0.38451654  0.77823378    -0.24800
C445        C  0.54951243  0.42076244  0.76271287    -0.24100
C446        C  0.57708566  0.42538161  0.73579061     0.40500
C447        C  0.60041355  0.39439387  0.72571292    -0.26500
O448        O  0.56409831  0.31914967  0.78458194    -0.58400
H449        H  0.52482738  0.38032109  0.79943618     0.16200
O450        O  0.58072168  0.45963844  0.71858638    -0.59800
H451        H  0.62181835  0.39825480  0.70534183     0.14600
H452        H  0.73473678  0.30756607  0.73924877     0.46500
H453        H  0.58199708  0.32025978  0.80564626     0.41900
H454        H  0.60503785  0.47085013  0.72731981     0.45300
H455        H  0.56073712  0.27757114  0.71281038     0.36800
C456        C  0.80977078  0.90177721  0.14786924    -0.27500
C457        C  0.84838296  0.89570419  0.14868675     0.02200
C458        C  0.86398090  0.87356434  0.17618777     0.30200
C459        C  0.84075868  0.85548864  0.20098501    -0.19200
C460        C  0.80148462  0.85877991  0.19862793    -0.28600
C461        C  0.78648070  0.88436915  0.17309609     0.44300
C462        C  0.87218717  0.91220096  0.12042194     0.05500
O463        O  0.90195475  0.86891955  0.17867959    -0.57200
H464        H  0.85418938  0.83895486  0.22166281     0.18400
O465        O  0.74877057  0.89109560  0.17139558    -0.63900
H466        H  0.79762653  0.91978836  0.12734959     0.16800
C467        C  0.87279930  0.89553078  0.08450160     0.29100
C468        C  0.89425427  0.91255679  0.05752484    -0.24800
C469        C  0.91527421  0.94646202  0.06582901    -0.24100
C470        C  0.91549474  0.96219760  0.10245823     0.40500
C471        C  0.89423371  0.94487436  0.12935805    -0.26500
O472        O  0.85180320  0.86310419  0.07531297    -0.58400
H473        H  0.89342067  0.89984355  0.02977937     0.16200
O474        O  0.93608484  0.99470928  0.11234504    -0.59800
H475        H  0.89424050  0.95755672  0.15713234     0.14600
H476        H  0.74490825  0.91466654  0.18732904     0.46500
H477        H  0.86690254  0.84114881  0.08355089     0.41900
H478        H  0.91806964  0.01633434  0.11215084     0.45300
H479        H  0.90742441  0.84612205  0.16221807     0.36800
C480        C  0.60233142  0.65253270  0.17741732    -0.27500
C481        C  0.60810805  0.68579636  0.15760487     0.02200
C482        C  0.58835376  0.69057134  0.12456201     0.30200
C483        C  0.56371425  0.66158777  0.11112619    -0.19200
C484        C  0.55894677  0.62764521  0.13024116    -0.28600
C485        C  0.57806131  0.62332818  0.16372302     0.44300
C486        C  0.63596006  0.71463044  0.17100615     0.05500
O487        O  0.59377978  0.72293377  0.10483075    -0.57200
H488        H  0.54923566  0.66491081  0.08516259     0.18400
O489        O  0.57255255  0.59094876  0.18340544    -0.63900
H490        H  0.61729029  0.64890544  0.20308312     0.16800
C491        C  0.62766725  0.74111276  0.20001690     0.29100
C492        C  0.65517284  0.76710213  0.21351734    -0.24800
C493        C  0.69116168  0.76667421  0.19856305    -0.24100
C494        C  0.69938236  0.74007842  0.16939757     0.40500
C495        C  0.67170430  0.71433219  0.15572617    -0.26500
O496        O  0.59276100  0.74177608  0.21520672    -0.58400
H497        H  0.64853098  0.78732789  0.23603734     0.16200
O498        O  0.73497877  0.73711248  0.15599373    -0.59800
H499        H  0.67839662  0.69337532  0.13382745     0.14600
H500        H  0.59432477  0.57424253  0.17788489     0.46500
H501        H  0.59439014  0.72466551  0.23630629     0.41900
H502        H  0.73410283  0.74920602  0.13181080     0.45300
H503        H  0.57430452  0.74129643  0.11347935     0.36800
C504        C  0.67011113  0.84523693  0.35484941    -0.27500
C505        C  0.64390144  0.87294531  0.34517812     0.02200
C506        C  0.64807272  0.89219920  0.31224819     0.30200
C507        C  0.67746499  0.88246681  0.28858835    -0.19200
C508        C  0.70235358  0.85306205  0.29720651    -0.28600
C509        C  0.69924817  0.83524432  0.33113381     0.44300
C510        C  0.60948233  0.87732548  0.36674652     0.05500
O511        O  0.62229476  0.91887742  0.30201194    -0.57200
H512        H  0.67929187  0.89601454  0.26239721     0.18400
O513        O  0.72344117  0.80669319  0.34055928    -0.63900
H514        H  0.66690902  0.83009265  0.38006317     0.16800
C515        C  0.58150508  0.84874760  0.36333415     0.29100
C516        C  0.54873753  0.85266648  0.38348738    -0.24800
C517        C  0.54254351  0.88545250  0.40698547    -0.24100
C518        C  0.57216206  0.91272874  0.41214723     0.40500
C519        C  0.60474670  0.90916035  0.39122474    -0.26500
O520        O  0.58645572  0.81619439  0.34107182    -0.58400
H521        H  0.52903007  0.82882975  0.38164415     0.16200
O522        O  0.57029134  0.94213248  0.43855199    -0.59800
H523        H  0.62685262  0.93062369  0.39496214     0.14600
H524        H  0.74641525  0.82044207  0.34968029     0.46500
H525        H  0.57778185  0.82328310  0.31630979     0.41900
H526        H  0.58330131  0.93240798  0.46043220     0.45300
H527        H  0.60285119  0.90378610  0.28779289     0.36800
C528        C  0.79157356  0.64215142  0.59829485    -0.27500
C529        C  0.82254467  0.61911300  0.60558217     0.02200
C530        C  0.83941666  0.62171196  0.64067080     0.30200
C531        C  0.82537646  0.64733543  0.66796018    -0.19200
C532        C  0.79425986  0.67059063  0.66085295    -0.28600
C533        C  0.77760428  0.66800811  0.62544224     0.44300
C534        C  0.83597864  0.59117687  0.57686209     0.05500
O535        O  0.86947032  0.59908940  0.64860931    -0.57200
H536        H  0.83860515  0.64870266  0.69492264     0.18400
O537        O  0.74819353  0.69116792  0.61676347    -0.63900
H538        H  0.77837287  0.64031417  0.57130412     0.16800
C539        C  0.81542664  0.55736521  0.56796342     0.29100
C540        C  0.82776669  0.53144972  0.54032016    -0.24800
C541        C  0.86068759  0.53837961  0.52045711    -0.24100
C542        C  0.88002248  0.57381243  0.52825344     0.40500
C543        C  0.86833598  0.59906934  0.55709628    -0.26500
O544        O  0.78236076  0.55011595  0.58520176    -0.58400
H545        H  0.81025911  0.50652000  0.53310135     0.16200
O546        O  0.90812194  0.58600639  0.50623162    -0.59800
H547        H  0.88349073  0.62594846  0.56279818     0.14600
H548        H  0.75847763  0.70988362  0.59965431     0.46500
H549        H  0.78940943  0.53592073  0.60725542     0.41900
H550        H  0.89542145  0.59971105  0.48630165     0.45300
H551        H  0.85858256  0.57386972  0.65502457     0.36800
C552        C  0.79443840  0.32463786  0.53553557    -0.27500
C553        C  0.81191452  0.31503677  0.56850156     0.02200
C554        C  0.84431971  0.33527246  0.58079311     0.30200
C555        C  0.85837065  0.36550436  0.56060103    -0.19200
C556        C  0.84058812  0.37551941  0.52795414    -0.28600
C557        C  0.80857754  0.35466317  0.51524696     0.44300
C558        C  0.79359829  0.28755051  0.59239293     0.05500
O559        O  0.86168314  0.32645640  0.61311330    -0.57200
H560        H  0.88294653  0.38143681  0.57050080     0.18400
O561        O  0.79014746  0.36437289  0.48376226    -0.63900
H562        H  0.76915715  0.30956685  0.52616015     0.16800
C563        C  0.76023908  0.29800605  0.60999021     0.29100
C564        C  0.74518758  0.27436336  0.63613839    -0.24800
C565        C  0.76238992  0.23949650  0.64451431    -0.24100
C566        C  0.79489450  0.22805224  0.62551728     0.40500
C567        C  0.81059324  0.25237267  0.59993428    -0.26500
O568        O  0.74335786  0.33246634  0.60335652    -0.58400
H569        H  0.72048603  0.28406196  0.65065501     0.16200
O570        O  0.81150142  0.19336690  0.63170799    -0.59800
H571        H  0.83615868  0.24399142  0.58617067     0.14600
H572        H  0.77444441  0.38681399  0.49117862     0.46500
H573        H  0.72377851  0.32601463  0.58447263     0.41900
H574        H  0.79793868  0.17413852  0.61537333     0.45300
H575        H  0.84971479  0.34314770  0.63235203     0.36800
C576        C  0.77323599  0.64019966  0.37501532    -0.27500
C577        C  0.79750083  0.64779798  0.34619178     0.02200
C578        C  0.82778027  0.62325685  0.33871765     0.30200
C579        C  0.83326220  0.59108326  0.35979556    -0.19200
C580        C  0.80901235  0.58340430  0.38865908    -0.28600
C581        C  0.77908723  0.60832368  0.39647172     0.44300
C582        C  0.79075355  0.68122642  0.32375386     0.05500
O583        O  0.85217962  0.63064032  0.31103677    -0.57200
H584        H  0.85681206  0.57240125  0.35408371     0.18400
O585        O  0.75554375  0.60167915  0.42501569    -0.63900
H586        H  0.74994271  0.65918364  0.38095402     0.16800
C587        C  0.75972578  0.68158076  0.29981877     0.29100
C588        C  0.75309606  0.71394157  0.27935073    -0.24800
C589        C  0.77704037  0.74633122  0.28262529    -0.24100
C590        C  0.80846828  0.74564051  0.30628668     0.40500
C591        C  0.81530457  0.71298808  0.32646048    -0.26500
O592        O  0.73564529  0.65052108  0.29647091    -0.58400
H593        H  0.72915751  0.71362447  0.26081310     0.16200
O594        O  0.83196176  0.77704835  0.31079076    -0.59800
H595        H  0.83928574  0.71276011  0.34492396     0.14600
H596        H  0.73725604  0.58211594  0.41508302     0.46500
H597        H  0.74723540  0.63238189  0.27817711     0.41900
H598        H  0.82077805  0.79351136  0.33066895     0.45300
H599        H  0.83995883  0.61971311  0.28823359     0.36800
C600        C  0.07982541  0.11107135  0.81321463    -0.27500
C601        C  0.09919395  0.13846750  0.83615606     0.02200
C602        C  0.09170238  0.14021901  0.87409154     0.30200
C603        C  0.06635470  0.11414578  0.88866113    -0.19200
C604        C  0.04788911  0.08590323  0.86598450    -0.28600
C605        C  0.05433580  0.08495687  0.82781601     0.44300
C606        C  0.12884248  0.16337304  0.82087608     0.05500
O607        O  0.11004370  0.16639409  0.89745406    -0.57200
H608        H  0.06177845  0.11550208  0.91807428     0.18400
O609        O  0.03793527  0.05701965  0.80490261    -0.63900
H610        H  0.08505004  0.10940042  0.78392979     0.16800
C611        C  0.15860919  0.14688980  0.80101496     0.29100
C612        C  0.18709461  0.17035288  0.78785307    -0.24800
C613        C  0.18665815  0.21100427  0.79351808    -0.24100
C614        C  0.15688750  0.22725222  0.81416171     0.40500
C615        C  0.12838676  0.20361991  0.82736888    -0.26500
O616        O  0.16091518  0.10751302  0.79548707    -0.58400
H617        H  0.20890646  0.15562307  0.77298877     0.16200
O618        O  0.15474339  0.26651166  0.82058633    -0.59800
H619        H  0.10564715  0.21688621  0.84258203     0.14600
H620        H  0.01532663  0.06926763  0.79478135     0.46500
H621        H  0.15417949  0.10218091  0.76920201     0.41900
H622        H  0.16346250  0.27131813  0.84638871     0.45300
H623        H  0.13397585  0.15392190  0.90376575     0.36800
C624        C  0.39742851  0.40434217  0.85883752    -0.27500
C625        C  0.36707825  0.40695545  0.83436139     0.02200
C626        C  0.36595918  0.43816164  0.81098852     0.30200
C627        C  0.39421590  0.46635855  0.81288499    -0.19200
C628        C  0.42335881  0.46588353  0.83929019    -0.28600
C629        C  0.42595592  0.43251569  0.86049404     0.44300
C630        C  0.33927190  0.37483684  0.82952293     0.05500
O631        O  0.33838708  0.44029494  0.78463738    -0.57200
H632        H  0.39417188  0.48725609  0.79180109     0.18400
O633        O  0.45736367  0.42539072  0.88092648    -0.63900
H634        H  0.39986466  0.37945243  0.87568433     0.16800
C635        C  0.35092078  0.33696678  0.81979569     0.29100
C636        C  0.32449566  0.30857742  0.80877825    -0.24800
C637        C  0.28638296  0.31731816  0.80712556    -0.24100
C638        C  0.27437503  0.35429421  0.81895155     0.40500
C639        C  0.30076226  0.38279285  0.83010140    -0.26500
O640        O  0.38818154  0.32801982  0.81862578    -0.58400
H641        H  0.33394148  0.28014270  0.79963670     0.16200
O642        O  0.23726548  0.36368987  0.81703486    -0.59800
H643        H  0.29129272  0.41169201  0.83757117     0.14600
H644        H  0.47468241  0.41201274  0.86361703     0.46500
H645        H  0.39648546  0.33512378  0.79390523     0.41900
H646        H  0.22612280  0.35371173  0.83963049     0.45300
H647        H  0.34779169  0.42522886  0.76288703     0.36800
C648        C  0.82747701  0.10966825  0.05733278    -0.27500
C649        C  0.83991065  0.14820397  0.06023791     0.02200
C650        C  0.87286104  0.15886829  0.04262802     0.30200
C651        C  0.89393193  0.13082376  0.02373989    -0.19200
C652        C  0.88247561  0.09179309  0.02171977    -0.28600
C653        C  0.84824316  0.08153074  0.03785419     0.44300
C654        C  0.81941674  0.17704554  0.08298531     0.05500
O655        O  0.88581742  0.19629506  0.04561343    -0.57200
H656        H  0.91994682  0.13960401  0.01149524     0.18400
O657        O  0.83586987  0.04389399  0.03667937    -0.63900
H658        H  0.80194070  0.10131393  0.07073421     0.16800
C659        C  0.79932452  0.20647114  0.06668446     0.29100
C660        C  0.78142951  0.23464127  0.08866657    -0.24800
C661        C  0.78297917  0.23406154  0.12744685    -0.24100
C662        C  0.80413307  0.20459656  0.14350451     0.40500
C663        C  0.82165428  0.17625581  0.12132289    -0.26500
O664        O  0.79710985  0.20800565  0.02912579    -0.58400
H665        H  0.76649003  0.25642208  0.07449501     0.16200
O666        O  0.80707643  0.20271127  0.18102194    -0.59800
H667        H  0.83752711  0.15385919  0.13411569     0.14600
H668        H  0.81904875  0.04139457  0.01482269     0.46500
H669        H  0.77485115  0.19207920  0.02171457     0.41900
H670        H  0.83236236  0.21308778  0.18757052     0.45300
H671        H  0.87702594  0.20831372  0.02286549     0.36800
C672        C  0.58482723  0.44433569  0.12993660    -0.27500
C673        C  0.60867654  0.42559800  0.10491345     0.02200
C674        C  0.60311008  0.43102718  0.06703163     0.30200
C675        C  0.57399583  0.45454173  0.05487075    -0.19200
C676        C  0.54997027  0.47364738  0.07986829    -0.28600
C677        C  0.55617646  0.46821561  0.11800549     0.44300
C678        C  0.63742349  0.39852628  0.11861950     0.05500
O679        O  0.62585760  0.41322863  0.04149357    -0.57200
H680        H  0.57058566  0.45710969  0.02584088     0.18400
O681        O  0.53333925  0.48522802  0.14403487    -0.63900
H682        H  0.58777257  0.43980370  0.15908084     0.16800
C683        C  0.66218866  0.40918491  0.14801047     0.29100
C684        C  0.68799323  0.38236341  0.16096814    -0.24800
C685        C  0.68962958  0.34477557  0.14503783    -0.24100
C686        C  0.66414950  0.33393177  0.11636022     0.40500
C687        C  0.63864744  0.36065123  0.10337084    -0.26500
O688        O  0.66243187  0.44619288  0.16317438    -0.58400
H689        H  0.70725065  0.39123829  0.18301377     0.16200
O690        O  0.66335174  0.29694359  0.10118967    -0.59800
H691        H  0.61909608  0.35137661  0.08171091     0.14600
H692        H  0.54948249  0.50355183  0.15891148     0.46500
H693        H  0.65198000  0.44413458  0.18814816     0.41900
H694        H  0.64565858  0.28259188  0.11642923     0.45300
H695        H  0.64704936  0.43146090  0.03865981     0.36800
C696        C  0.81642356  0.39014092  0.26214874    -0.27500
C697        C  0.82736462  0.36986157  0.29302666     0.02200
C698        C  0.81925361  0.32998062  0.29379862     0.30200
C699        C  0.80014882  0.31112675  0.26428790    -0.19200
C700        C  0.78856597  0.33159857  0.23389536    -0.28600
C701        C  0.79705141  0.37122830  0.23270016     0.44300
C702        C  0.84132239  0.39144289  0.32661192     0.05500
O703        O  0.82878722  0.30953351  0.32388589    -0.57200
H704        H  0.79384553  0.28051969  0.26532327     0.18400
O705        O  0.78570742  0.39188209  0.20335925    -0.63900
H706        H  0.82155145  0.42098758  0.26157188     0.16800
C707        C  0.87442835  0.41389479  0.32755441     0.29100
C708        C  0.88480438  0.43579240  0.35975078    -0.24800
C709        C  0.86191329  0.43635078  0.39100447    -0.24100
C710        C  0.82797532  0.41461606  0.38884760     0.40500
C711        C  0.81877646  0.39176998  0.35759158    -0.26500
O712        O  0.89671143  0.41463630  0.29719321    -0.58400
H713        H  0.90953798  0.45381988  0.35922342     0.16200
O714        O  0.80249302  0.41678577  0.41676782    -0.59800
H715        H  0.79260391  0.37569391  0.35687804     0.14600
H716        H  0.80468642  0.38673684  0.18416605     0.46500
H717        H  0.88997598  0.43869876  0.28498944     0.41900
H718        H  0.78303947  0.43487716  0.40865210     0.45300
H719        H  0.85372215  0.29857367  0.31824050     0.36800
C720        C  0.55747554  0.10523551  0.56698108    -0.27500
C721        C  0.58787112  0.13096944  0.56600260     0.02200
C722        C  0.59114770  0.15451308  0.53569008     0.30200
C723        C  0.56507203  0.15130800  0.50672076    -0.19200
C724        C  0.53608882  0.12335241  0.50577915    -0.28600
C725        C  0.53144280  0.10167404  0.53766540     0.44300
C726        C  0.61504457  0.13489088  0.59732761     0.05500
O727        O  0.61891080  0.18205735  0.53477430    -0.57200
H728        H  0.56664874  0.17261109  0.48607085     0.18400
O729        O  0.49970665  0.07984769  0.54206281    -0.63900
H730        H  0.55348936  0.08820355  0.59090468     0.16800
C731        C  0.60324026  0.14421253  0.63350944     0.29100
C732        C  0.62976775  0.15200392  0.66166589    -0.24800
C733        C  0.66811481  0.15090137  0.65423351    -0.24100
C734        C  0.67993246  0.14053308  0.61848843     0.40500
C735        C  0.65352882  0.13212122  0.59047591    -0.26500
O736        O  0.56597711  0.14811020  0.64116513    -0.58400
H737        H  0.62038656  0.16136190  0.68881230     0.16200
O738        O  0.71727709  0.14041156  0.61031954    -0.59800
H739        H  0.66314906  0.12495014  0.56290945     0.14600
H740        H  0.50831234  0.05344809  0.54711949     0.46500
H741        H  0.56053605  0.17583827  0.63811627     0.41900
H742        H  0.72259417  0.16636549  0.60100713     0.45300
H743        H  0.60904968  0.20497371  0.54870677     0.36800
C744        C  0.34931277  0.24054357  0.66720765    -0.27500
C745        C  0.33703561  0.21072367  0.64249633     0.02200
C746        C  0.30405992  0.19026986  0.64978559     0.30200
C747        C  0.28333949  0.20032717  0.68091767    -0.19200
C748        C  0.29506536  0.23063221  0.70556785    -0.28600
C749        C  0.32878650  0.25038056  0.69875130     0.44300
C750        C  0.35854025  0.20117839  0.60898962     0.05500
O751        O  0.29123584  0.16108216  0.62604340    -0.57200
H752        H  0.25715096  0.18522795  0.68482954     0.18400
O753        O  0.34193069  0.27934402  0.72253540    -0.63900
H754        H  0.37499286  0.25613755  0.66207903     0.16800
C755        C  0.36541069  0.22920997  0.58291785     0.29100
C756        C  0.38618243  0.21955724  0.55154239    -0.24800
C757        C  0.40017967  0.18218048  0.54595139    -0.24100
C758        C  0.39247090  0.15391764  0.57139307     0.40500
C759        C  0.37184491  0.16349870  0.60275552    -0.26500
O760        O  0.35212588  0.26607466  0.58799392    -0.58400
H761        H  0.39218066  0.24136564  0.53196287     0.16200
O762        O  0.40563945  0.11705409  0.56601941    -0.59800
H763        H  0.36660890  0.14163852  0.62250682     0.14600
H764        H  0.36234364  0.26756271  0.73675831     0.46500
H765        H  0.32612290  0.26490280  0.57827817     0.41900
H766        H  0.38679603  0.10348480  0.54977553     0.45300
H767        H  0.27705643  0.17416218  0.60668048     0.36800
C768        C  0.62844560  0.17475226  0.33076273    -0.27500
C769        C  0.61547104  0.20192369  0.30632973     0.02200
C770        C  0.57771208  0.21264683  0.30696857     0.30200
C771        C  0.55354045  0.19680228  0.33228602    -0.19200
C772        C  0.56630225  0.16974586  0.35717995    -0.28600
C773        C  0.60412076  0.15829504  0.35575679     0.44300
C774        C  0.64123563  0.21867830  0.27977136     0.05500
O775        O  0.56425691  0.23891207  0.28311019    -0.57200
H776        H  0.52483138  0.20639632  0.33292345     0.18400
O777        O  0.61752876  0.13060129  0.37807122    -0.63900
H778        H  0.65740588  0.16585932  0.33004000     0.16800
C779        C  0.66977358  0.24477582  0.29155643     0.29100
C780        C  0.69323546  0.26108504  0.26569808    -0.24800
C781        C  0.68900901  0.25095635  0.22810614    -0.24100
C782        C  0.66014272  0.22512476  0.21638619     0.40500
C783        C  0.63650011  0.20923682  0.24215573    -0.26500
O784        O  0.67423401  0.25522040  0.32815743    -0.58400
H785        H  0.71527939  0.28095209  0.27507257     0.16200
O786        O  0.65463832  0.21545519  0.17974712    -0.59800
H787        H  0.61440502  0.18941683  0.23279897     0.14600
H788        H  0.61295665  0.10567474  0.36420935     0.46500
H789        H  0.69397061  0.23804382  0.33727454     0.41900
H790        H  0.63874310  0.23622101  0.17034742     0.45300
H791        H  0.56921857  0.26458841  0.29544539     0.36800
C792        C  0.06551545  0.91063808  0.80413254    -0.27500
C793        C  0.10209617  0.89715197  0.80883988     0.02200
C794        C  0.11978825  0.90343888  0.84350931     0.30200
C795        C  0.10171681  0.92425954  0.87201627    -0.19200
C796        C  0.06546231  0.93864664  0.86709461    -0.28600
C797        C  0.04711936  0.93087784  0.83281586     0.44300
C798        C  0.12191751  0.87747223  0.77733469     0.05500
O799        O  0.15494201  0.88951717  0.84984909    -0.57200
H800        H  0.11633304  0.92939524  0.89804032     0.18400
O801        O  0.01196303  0.94468681  0.82620828    -0.63900
H802        H  0.05141375  0.90634757  0.77773128     0.16800
C803        C  0.10573535  0.84586339  0.75711428     0.29100
C804        C  0.12527398  0.82737408  0.72817840    -0.24800
C805        C  0.16146415  0.83966102  0.71827852    -0.24100
C806        C  0.17790338  0.87083421  0.73957060     0.40500
C807        C  0.15793690  0.88972261  0.76801509    -0.26500
O808        O  0.07141217  0.83157932  0.76646282    -0.58400
H809        H  0.11236285  0.80194300  0.71510832     0.16200
O810        O  0.21439783  0.88164386  0.73446614    -0.59800
H811        H  0.17112918  0.91375118  0.78341470     0.14600
H812        H  0.99470293  0.92301005  0.83122728     0.46500
H813        H  0.07679718  0.81116152  0.78399277     0.41900
H814        H  0.21330653  0.90778793  0.72440134     0.45300
H815        H  0.15122121  0.86175933  0.85451368     0.36800
C816        C  0.30398627  0.68368516  0.69892444    -0.27500
C817        C  0.31770133  0.69106138  0.73487421     0.02200
C818        C  0.30338862  0.72274345  0.75565565     0.30200
C819        C  0.27670406  0.74672593  0.74019565    -0.19200
C820        C  0.26198432  0.73885754  0.70444145    -0.28600
C821        C  0.27568827  0.70621689  0.68417162     0.44300
C822        C  0.34590717  0.66484479  0.75075122     0.05500
O823        O  0.31484394  0.73030841  0.79138612    -0.57200
H824        H  0.26772888  0.77162088  0.75666731     0.18400
O825        O  0.26113187  0.69487096  0.65037503    -0.63900
H826        H  0.31480124  0.65975118  0.68221693     0.16800
C827        C  0.34088034  0.62438115  0.74805386     0.29100
C828        C  0.36702710  0.60023604  0.76406373    -0.24800
C829        C  0.39854559  0.61551113  0.78323768    -0.24100
C830        C  0.40389648  0.65595960  0.78557589     0.40500
C831        C  0.37780385  0.68019333  0.76931365    -0.26500
O832        O  0.30939023  0.60819658  0.73160468    -0.58400
H833        H  0.36242543  0.56928137  0.76159534     0.16200
O834        O  0.43327296  0.67220672  0.80549519    -0.59800
H835        H  0.38243676  0.71117351  0.77147863     0.14600
H836        H  0.23743763  0.68116708  0.65550547     0.46500
H837        H  0.31802344  0.59528223  0.70838457     0.41900
H838        H  0.45085976  0.68170064  0.78699308     0.45300
H839        H  0.29715162  0.71574466  0.80648047     0.36800
C840        C  0.37658916  0.90010157  0.55763707    -0.27500
C841        C  0.35836926  0.86390661  0.55595290     0.02200
C842        C  0.37090678  0.83517759  0.53074099     0.30200
C843        C  0.40039390  0.84294075  0.50731481    -0.19200
C844        C  0.41755112  0.87986597  0.50688427    -0.28600
C845        C  0.40670965  0.90775260  0.53424675     0.44300
C846        C  0.32757150  0.85494736  0.58152604     0.05500
O847        O  0.35368630  0.79953893  0.52806872    -0.57200
H848        H  0.40977058  0.81938868  0.48927215     0.18400
O849        O  0.42626303  0.94169986  0.53984898    -0.63900
H850        H  0.36828069  0.92201451  0.57802511     0.16800
C851        C  0.33142826  0.82487248  0.60608540     0.29100
C852        C  0.30070527  0.81262402  0.62615700    -0.24800
C853        C  0.26576938  0.83050375  0.62304850    -0.24100
C854        C  0.26243965  0.86220428  0.60019483     0.40500
C855        C  0.29314553  0.87398391  0.57939094    -0.26500
O856        O  0.36502203  0.80661219  0.61006360    -0.58400
H857        H  0.30428927  0.78898864  0.64436622     0.16200
O858        O  0.22876267  0.88025329  0.59623242    -0.59800
H859        H  0.28969393  0.89714227  0.56062501     0.14600
H860        H  0.44818030  0.93519051  0.55522325     0.46500
H861        H  0.38068520  0.82471148  0.62565568     0.41900
H862        H  0.23145722  0.90525726  0.61046204     0.45300
H863        H  0.37183617  0.78136773  0.53846107     0.36800
C864        C  0.18302614  0.32136278  0.64124925    -0.27500
C865        C  0.19255378  0.36078786  0.64320206     0.02200
C866        C  0.21066855  0.37676331  0.67500917     0.30200
C867        C  0.21892375  0.35333931  0.70434358    -0.19200
C868        C  0.20901093  0.31403160  0.70250611    -0.28600
C869        C  0.19138129  0.29793879  0.67049136     0.44300
C870        C  0.18270859  0.38510903  0.61221833     0.05500
O871        O  0.22067513  0.41512950  0.67750257    -0.57200
H872        H  0.23316190  0.36583528  0.72856602     0.18400
O873        O  0.18313487  0.25916834  0.66710746    -0.63900
H874        H  0.16904697  0.30872770  0.61695463     0.16800
C875        C  0.19609356  0.37664296  0.57656055     0.29100
C876        C  0.18508552  0.39923495  0.54741306    -0.24800
C877        C  0.16047138  0.43017089  0.55325284    -0.24100
C878        C  0.14715450  0.43860372  0.58907018     0.40500
C879        C  0.15840325  0.41619047  0.61817134    -0.26500
O880        O  0.22056559  0.34687974  0.57018385    -0.58400
H881        H  0.19562950  0.39251947  0.52011437     0.16200
O882        O  0.12107389  0.46686065  0.59540767    -0.59800
H883        H  0.14727176  0.42243064  0.64534255     0.14600
H884        H  0.20646375  0.24678040  0.65824590     0.46500
H885        H  0.20536314  0.32560072  0.55835731     0.41900
H886        H  0.13469392  0.48831304  0.60884739     0.45300
H887        H  0.24582461  0.41636264  0.66642269     0.36800
C888        C  0.15221239  0.66533660  0.24620010    -0.27500
C889        C  0.17813955  0.63743969  0.25647439     0.02200
C890        C  0.21055985  0.63225579  0.23512278     0.30200
C891        C  0.21684982  0.65522290  0.20504363    -0.19200
C892        C  0.19240200  0.68522857  0.19658850    -0.28600
C893        C  0.15958160  0.68989658  0.21762623     0.44300
C894        C  0.17152019  0.61516014  0.29009685     0.05500
O895        O  0.23717543  0.60592904  0.24414470    -0.57200
H896        H  0.24180452  0.65015498  0.18908858     0.18400
O897        O  0.13528791  0.71953617  0.21212183    -0.63900
H898        H  0.12650711  0.66920890  0.26129783     0.16800
C899        C  0.15827007  0.63357019  0.32278146     0.29100
C900        C  0.15000819  0.61195012  0.35323769    -0.24800
C901        C  0.15637537  0.57189710  0.35291937    -0.24100
C902        C  0.17225017  0.55401246  0.32113668     0.40500
C903        C  0.17844540  0.57526356  0.28988468    -0.26500
O904        O  0.15318539  0.67281485  0.32543874    -0.58400
H905        H  0.13799776  0.62682715  0.37697700     0.16200
O906        O  0.18216277  0.51584918  0.32013540    -0.59800
H907        H  0.18854388  0.56021036  0.26530335     0.14600
H908        H  0.14535456  0.74179733  0.22740275     0.46500
H909        H  0.17841285  0.68402773  0.33061741     0.41900
H910        H  0.20686098  0.51533564  0.33278205     0.45300
H911        H  0.25368420  0.61975849  0.26253788     0.36800
C912        C  0.11148271  0.64124655  0.51005780    -0.27500
C913        C  0.12194780  0.63738148  0.54711518     0.02200
C914        C  0.11642715  0.60096821  0.56226146     0.30200
C915        C  0.10427773  0.56914480  0.53988280    -0.19200
C916        C  0.10115681  0.57125232  0.50142318    -0.28600
C917        C  0.09982178  0.60889581  0.48773384     0.44300
C918        C  0.13720985  0.67127889  0.57009313     0.05500
O919        O  0.12403496  0.59561362  0.59870034    -0.57200
H920        H  0.09807943  0.54247571  0.55289151     0.18400
O921        O  0.08610024  0.61477113  0.45312422    -0.63900
H922        H  0.11209674  0.66949146  0.49842932     0.16800
C923        C  0.16749214  0.69400725  0.55830318     0.29100
C924        C  0.18248794  0.72429814  0.58134221    -0.24800
C925        C  0.16770762  0.73282598  0.61638103    -0.24100
C926        C  0.13741306  0.71008186  0.62806851     0.40500
C927        C  0.12245197  0.68005257  0.60504363    -0.26500
O928        O  0.18312580  0.68649517  0.52453906    -0.58400
H929        H  0.20570192  0.74123779  0.57169643     0.16200
O930        O  0.12355026  0.71540856  0.66291425    -0.59800
H931        H  0.09916006  0.66333953  0.61483281     0.14600
H932        H  0.05864031  0.61142412  0.45485484     0.46500
H933        H  0.20167065  0.66594350  0.52846751     0.41900
H934        H  0.09832865  0.72654491  0.65966871     0.45300
H935        H  0.15098066  0.58922932  0.59979303     0.36800
C936        C  0.08719918  0.13417882  0.07167544    -0.27500
C937        C  0.12303872  0.12061871  0.07955586     0.02200
C938        C  0.13635641  0.08817784  0.05904257     0.30200
C939        C  0.11342426  0.06922194  0.03191625    -0.19200
C940        C  0.07709699  0.08240964  0.02433757    -0.28600
C941        C  0.06440922  0.11566862  0.04448410     0.44300
C942        C  0.14621857  0.14168611  0.10854660     0.05500
O943        O  0.17116960  0.07390005  0.06629695    -0.57200
H944        H  0.12388976  0.04369611  0.01728726     0.18400
O945        O  0.02958002  0.13042272  0.03812301    -0.63900
H946        H  0.07674445  0.15942741  0.08679422     0.16800
C947        C  0.17614788  0.16556532  0.09898953     0.29100
C948        C  0.19499140  0.18883009  0.12602984    -0.24800
C949        C  0.18439610  0.18950129  0.16346390    -0.24100
C950        C  0.15594491  0.16315417  0.17308264     0.40500
C951        C  0.13665640  0.14039575  0.14578945    -0.26500
O952        O  0.18695004  0.16682903  0.06301573    -0.58400
H953        H  0.21821983  0.20573112  0.11688971     0.16200
O954        O  0.14610163  0.15997871  0.20912959    -0.59800
H955        H  0.11394148  0.12174872  0.15374538     0.14600
H956        H  0.01326534  0.11922689  0.05683821     0.46500
H957        H  0.17261762  0.18832452  0.05280173     0.41900
H958        H  0.16145237  0.13859981  0.21815973     0.45300
H959        H  0.18761328  0.08445585  0.04734094     0.36800
C960        C  0.35420789  0.42378501  0.17059820    -0.27500
C961        C  0.35675571  0.38380348  0.16304366     0.02200
C962        C  0.38537058  0.36974269  0.13996583     0.30200
C963        C  0.41000628  0.39556628  0.12378945    -0.19200
C964        C  0.40691414  0.43572472  0.13038808    -0.28600
C965        C  0.37926226  0.44961642  0.15495543     0.44300
C966        C  0.32808018  0.35711409  0.17726872     0.05500
O967        O  0.38786126  0.33093619  0.13108740    -0.57200
H968        H  0.43074838  0.38416659  0.10489554     0.18400
O969        O  0.37640824  0.48832641  0.16397028    -0.63900
H970        H  0.33257001  0.43500894  0.18860645     0.16800
C971        C  0.33791742  0.32720139  0.20047109     0.29100
C972        C  0.31086975  0.30020410  0.21058304    -0.24800
C973        C  0.27389929  0.30234758  0.19759262    -0.24100
C974        C  0.26365919  0.33321211  0.17576213     0.40500
C975        C  0.29062359  0.36040048  0.16589878    -0.26500
O976        O  0.37404216  0.32365389  0.21279451    -0.58400
H977        H  0.31904936  0.27676377  0.22763239     0.16200
O978        O  0.22751543  0.33667663  0.16344227    -0.59800
H979        H  0.28252574  0.38343396  0.14833521     0.14600
H980        H  0.39454889  0.49337118  0.18448713     0.46500
H981        H  0.37597418  0.34086384  0.23525180     0.41900
H982        H  0.21468712  0.35187486  0.18320972     0.45300
H983        H  0.40949618  0.32189198  0.14553170     0.36800
C984        C  0.30331808  0.20306338  0.33489299    -0.27500
C985        C  0.32762531  0.17326221  0.32395289     0.02200
C986        C  0.32464018  0.15704246  0.28790264     0.30200
C987        C  0.29801638  0.17098169  0.26320704    -0.19200
C988        C  0.27382901  0.20128490  0.27382457    -0.28600
C989        C  0.27634668  0.21674911  0.31043620     0.44300
C990        C  0.35778649  0.16131134  0.34943504     0.05500
O991        O  0.34811315  0.12798070  0.27633513    -0.57200
H992        H  0.29705839  0.15865986  0.23533097     0.18000
O993        O  0.25236239  0.24491069  0.32296403    -0.63900
H994        H  0.30533448  0.21583810  0.36258518     0.16800
C995        C  0.38979799  0.18455867  0.35507454     0.29100
C996        C  0.41803612  0.17362255  0.37931491    -0.24800
C997        C  0.41636339  0.13839236  0.39745144    -0.24100
C998        C  0.38249467  0.11684335  0.39400986     0.40500
C999        C  0.35418544  0.12769975  0.36932591    -0.26500
O1000       O  0.39341269  0.21860402  0.33751325    -0.58400
H1001       H  0.44130763  0.19342350  0.38425393     0.16200
O1002       O  0.37529596  0.08692510  0.41629095    -0.59800
H1003       H  0.32874847  0.11053353  0.36665234     0.14600
H1004       H  0.22992964  0.23081185  0.33123713     0.46500
H1005       H  0.40745057  0.21189641  0.31484302     0.41900
H1006       H  0.36551696  0.09918480  0.43933282     0.45300
H1007       H  0.37052729  0.14129224  0.26703318     0.36800
C1008       C  0.15789324  0.39134559  0.37440261    -0.27500
C1009       C  0.13058466  0.37041068  0.35397363     0.02200
C1010       C  0.09268499  0.37841371  0.36096923     0.30200
C1011       C  0.08284113  0.40825787  0.38674578    -0.19200
C1012       C  0.11035919  0.43079689  0.40608031    -0.28600
C1013       C  0.14837370  0.42103580  0.39978080     0.44300
C1014       C  0.14294649  0.34259054  0.32395354     0.05500
O1015       O  0.06500783  0.35824703  0.34183515    -0.57200
H1016       H  0.05372388  0.41410985  0.39003063     0.18400
O1017       O  0.17687027  0.44228689  0.41663342    -0.63900
H1018       H  0.18721173  0.38537789  0.36989518     0.16800
C1019       C  0.16753850  0.35516558  0.29679698     0.29100
C1020       C  0.18310093  0.32855433  0.27130151    -0.24800
C1021       C  0.17433429  0.28907359  0.27177404    -0.24100
C1022       C  0.14865767  0.27641692  0.29789389     0.40500
C1023       C  0.13312957  0.30311007  0.32376594    -0.26500
O1024       O  0.17613437  0.39371423  0.29472293    -0.58400
H1025       H  0.20246043  0.33883879  0.25117667     0.16200
O1026       O  0.13963981  0.23793552  0.29921528    -0.59800
H1027       H  0.11451941  0.29276251  0.34451083     0.14600
H1028       H  0.18967067  0.42446156  0.43314791     0.46500
H1029       H  0.20231819  0.39658725  0.30380205     0.41900
H1030       H  0.15804921  0.22728627  0.31655328     0.45300
H1031       H  0.06118922  0.37230510  0.31895939     0.36800
loop_ 
_geom_bond_atom_site_label_1 
_geom_bond_atom_site_label_2 
_geom_bond_distance 
_geom_bond_site_symmetry_2 
_ccdc_geom_bond_type 
C1            C2   1.551       .  S
C1            C7   1.550       .  S
C1            C5   1.542       .  S
C1          C949   1.553       .  S
C2            H9   1.081       .  S
C2            C3   1.363       .  D
C3            C4   1.531       .  S
C3          C973   1.485       .  S
C4            C8   1.540       .  S
C4            C6   1.543       .  S
C4           H10   1.109       .  S
C5           H11   1.086       .  S
C5            C6   1.372       .  D
C6          C988   1.502       .  S
C7           H12   1.086       .  S
C7            C8   1.371       .  D
C8         C1021   1.491       .  S
C13          C15   1.535       .  S
C13          C17   1.536       .  S
C13          C16   1.553       .  S
C13        C1012   1.551       .  S
C14          C18   1.546       .  S
C14          C20   1.548       .  S
C14          C19   1.553       .  S
C14         C916   1.555       .  S
C15          C23   1.374       .  A
C15          C18   1.388       .  A
C16          C27   1.385       .  A
C16          C19   1.412       .  A
C17          C31   1.378       .  A
C17          C20   1.392       .  A
C18          C21   1.383       .  A
C19          C25   1.381       .  A
C20          C28   1.382       .  A
C21          N22   1.363       .  A
C21          H34   1.079       .  S
N22          C23   1.359       .  A
N22         C901   1.450       .  S
C23          H24   1.080       .  S
C25          N26   1.361       .  A
C25          H35   1.082       .  S
N26          C27   1.359       .  A
N26         N108   1.417   1_455  S
C27          H33   1.075       .  S
C28          N29   1.355       .  A
C28          H30   1.079       .  S
N29          C31   1.355       .  A
N29         C877   1.439       .  S
C31          H32   1.082       .  S
C36          C37   1.537       .  S
C36          C42   1.542       .  S
C36          C40   1.544       .  S
C36         C805   1.544       .  S
C37          H44   1.085       .  S
C37          C38   1.371       .  D
C38          C39   1.545       .  S
C38         C820   1.505       .  S
C39          C43   1.548       .  S
C39          C41   1.543       .  S
C39          H45   1.104       .  S
C40          H46   1.083       .  S
C40          C41   1.368       .  D
C41         C853   1.495       .  S
C42          H47   1.083       .  S
C42          C43   1.368       .  D
C43         C925   1.503       .  S
C48          C50   1.534       .  S
C48          C52   1.545       .  S
C48          C51   1.556       .  S
C48         C997   1.544       .  S
C49          C53   1.527       .  S
C49          C55   1.544       .  S
C49          C54   1.545       .  S
C49         C724   1.542       .  S
C50          C58   1.382       .  A
C50          C53   1.394       .  A
C51          C62   1.391       .  A
C51          C54   1.410       .  A
C52          C66   1.378       .  A
C52          C55   1.394       .  A
C53          C56   1.373       .  A
C54          C60   1.378       .  A
C55          C63   1.383       .  A
C56          N57   1.351       .  A
C56          H69   1.083       .  S
N57          C58   1.354       .  A
N57         C757   1.428       .  S
C58          H59   1.082       .  S
C60          N61   1.352       .  A
C60          H70   1.082       .  S
N61          C62   1.357       .  A
N61         N155   1.407   1_545  S
C62          H68   1.081       .  S
C63          N64   1.359       .  A
C63          H65   1.079       .  S
N64          C66   1.358       .  A
N64         C772   1.445       .  S
C66          H67   1.082       .  S
C71          C72   1.535       .  S
C71          C77   1.544       .  S
C71          C75   1.536       .  S
C71         C661   1.533       .  S
C72          H79   1.086       .  S
C72          C73   1.363       .  D
C73          C74   1.541       .  S
C73         C700   1.476       .  S
C74          C78   1.544       .  S
C74          C76   1.538       .  S
C74          H80   1.111       .  S
C75          H81   1.087       .  S
C75          C76   1.363       .  D
C76         C781   1.480       .  S
C77          H82   1.080       .  S
C77          C78   1.367       .  D
C78         C685   1.491       .  S
C83          C84   1.541       .  S
C83          C89   1.544       .  S
C83          C87   1.550       .  S
C83         C613   1.540       .  S
C84          H91   1.086       .  S
C84          C85   1.363       .  D
C85          C86   1.528       .  S
C85         C868   1.476       .  S
C86          C90   1.533       .  S
C86          C88   1.532       .  S
C86          H92   1.109       .  S
C87          H93   1.079       .  S
C87          C88   1.367       .  D
C88         C748   1.487       .  S
C89          H94   1.086       .  S
C89          C90   1.367       .  D
C90         C637   1.476       .  S
C95          C97   1.530       .  S
C95          C99   1.539       .  S
C95          C98   1.557       .  S
C95         C541   1.535       .  S
C96         C100   1.527       .  S
C96         C102   1.527       .  S
C96         C101   1.555       .  S
C96         C709   1.534       .  S
C97         C105   1.381       .  A
C97         C100   1.392       .  A
C98         C109   1.387       .  A
C98         C101   1.426       .  A
C99         C113   1.382       .  A
C99         C102   1.385       .  A
C100        C103   1.378       .  A
C101        C107   1.386       .  A
C102        C110   1.372       .  A
C103        N104   1.348       .  A
C103        H116   1.083       .  S
N104        C105   1.349       .  A
N104        C580   1.429       .  S
C105        H106   1.083       .  S
C107        N108   1.357       .  A
C107        H117   1.080       .  S
N108        C109   1.353       .  A
C109        H115   1.081       .  S
C110        N111   1.352       .  A
C110        H112   1.082       .  S
N111        C113   1.359       .  A
N111        C556   1.432       .  S
C113        H114   1.082       .  S
C118        C119   1.542       .  S
C118        C124   1.550       .  S
C118        C122   1.542       .  S
C118        C460   1.531       .  S
C119        H126   1.086       .  S
C119        C120   1.363       .  D
C120        C121   1.528       .  S
C120        C493   1.476       .  S
C121        C125   1.527       .  S
C121        C123   1.529       .  S
C121        H127   1.111       .  S
C122        H128   1.086       .  S
C122        C123   1.366       .  D
C123        C508   1.477       .  S
C124        H129   1.081       .  S
C124        C125   1.365       .  D
C125        C589   1.477       .  S
C130        C131   1.551       .  S
C130        C136   1.546       .  S
C130        C134   1.547       .  S
C130        C421   1.539       .  S
C131        H138   1.080       .  S
C131        C132   1.362       .  D
C132        C133   1.525       .  S
C132        C436   1.478       .  S
C133        C137   1.531       .  S
C133        C135   1.524       .  S
C133        H139   1.111       .  S
C134        H140   1.086       .  S
C134        C135   1.367       .  D
C135        C733   1.475       .  S
C136        H141   1.086       .  S
C136        C137   1.368       .  D
C137        C565   1.481       .  S
C142        C144   1.543       .  S
C142        C146   1.536       .  S
C142        C145   1.558       .  S
C142        C844   1.543       .  S
C143        C147   1.544       .  S
C143        C149   1.524       .  S
C143        C148   1.542       .  S
C143        C517   1.531       .  S
C144        C152   1.378       .  A
C144        C147   1.401       .  A
C145        C156   1.387       .  A
C145        C148   1.406       .  A
C146        C160   1.384       .  A
C146        C149   1.383       .  A
C147        C150   1.387       .  A
C148        C154   1.378       .  A
C149        C157   1.371       .  A
C150        N151   1.357       .  A
C150        H163   1.081       .  S
N151        C152   1.352       .  A
N151        C388   1.446       .  S
C152        H153   1.081       .  S
C154        N155   1.353       .  A
C154        H164   1.082       .  S
N155        C156   1.360       .  A
C156        H162   1.080       .  S
C157        N158   1.356       .  A
C157        H159   1.082       .  S
N158        C160   1.363       .  A
N158        C364   1.441       .  S
C160        H161   1.082       .  S
C165        C166   1.538       .  S
C165        C171   1.547       .  S
C165        C169   1.541       .  S
C165        C316   1.532       .  S
C166        H173   1.084       .  S
C166        C167   1.368       .  D
C167        C168   1.541       .  S
C167        C892   1.497       .  S
C168        C172   1.537       .  S
C168        C170   1.535       .  S
C168        H174   1.105       .  S
C169        H175   1.084       .  S
C169        C170   1.365       .  D
C170        C397   1.490       .  S
C171        H176   1.081       .  S
C171        C172   1.365       .  D
C172        C349   1.488       .  S
C177        C178   1.546       .  S
C177        C183   1.546       .  S
C177        C181   1.539       .  S
C177        C277   1.544       .  S
C178        H185   1.080       .  S
C178        C179   1.366       .  D
C179        C180   1.541       .  S
C179        C532   1.494       .  S
C180        C184   1.549       .  S
C180        C182   1.537       .  S
C180        H186   1.102       .  S
C181        H187   1.086       .  S
C181        C182   1.360       .  D
C182        C373   1.478       .  S
C183        H188   1.085       .  S
C183        C184   1.377       .  D
C184        C292   1.515       .  S
C189        C191   1.535       .  S
C189        C193   1.544       .  S
C189        C192   1.566       .  S
C189        C676   1.545       .  S
C190        C194   1.540       .  S
C190        C196   1.544       .  S
C190        C195   1.530       .  S
C190        C340   1.536       .  S
C191        C199   1.374       .  A
C191        C194   1.391       .  A
C192        C203   1.397   1_554  A
C192        C195   1.407       .  A
C193        C207   1.382       .  A
C193        C196   1.392       .  A
C194        C197   1.381       .  A
C195        C201   1.370   1_554  A
C196        C204   1.384       .  A
C197        N198   1.354       .  A
C197        H210   1.081       .  S
N198        C199   1.353       .  A
N198        C484   1.429       .  S
C199        H200   1.082       .  S
C201        N202   1.349       .  A
C201        H211   1.082       .  S
N202        C203   1.361       .  A
N202        N225   1.406       .  S
C203        H209   1.077       .  S
C204        N205   1.359       .  A
C204        H206   1.080       .  S
N205        C207   1.359       .  A
N205        C964   1.448       .  S
C207        H208   1.082       .  S
C212        C214   1.542       .  S
C212        C216   1.560       .  S
C212        C215   1.549       .  S
C212        C301   1.546       .  S
C213        C217   1.530       .  S
C213        C219   1.543       .  S
C213        C218   1.535       .  S
C213        C628   1.541       .  S
C214        C222   1.381       .  A
C214        C217   1.390       .  A
C215        C226   1.387       .  A
C215        C218   1.400       .  A
C216        C230   1.390       .  A
C216        C219   1.401       .  A
C217        C220   1.372       .  A
C218        C224   1.375       .  A
C219        C227   1.377       .  A
C220        N221   1.358       .  A
C220        H233   1.082       .  S
N221        C222   1.360       .  A
N221        C445   1.442       .  S
C222        H223   1.080       .  S
C224        N225   1.351       .  A
C224        H234   1.082       .  S
N225        C226   1.360       .  A
C226        H232   1.082       .  S
C227        N228   1.354       .  A
C227        H229   1.081       .  S
N228        C230   1.359       .  A
N228        C829   1.445       .  S
C230        H231   1.079       .  S
O235        C243   1.255       .  A
O235       Co255   1.968   1_456  S
O236        C244   1.268       .  A
O236       Co256   1.973       .  S
O237        C245   1.297       .  A
O237       Co257   2.097   1_545  S
O238        C246   1.277   1_556  A
O238       Co258   2.031   1_545  S
O239        C245   1.272   1_655  A
O239       Co256   1.902       .  S
O240        C246   1.265       .  A
O240       Co255   1.958       .  S
O241        C244   1.275       .  A
O241       Co258   2.013   1_545  S
O242        C243   1.266       .  A
O242       Co257   2.035   1_545  S
C243        C940   1.501   1_556  S
C244        C412   1.487       .  S
C245        C604   1.483       .  S
C246        C652   1.483       .  S
O247        C260   1.269   1_545  A
O247       Co255   2.006       .  S
O248        C261   1.292       .  A
O248       Co256   2.099   1_465  S
O249        C262   1.270   1_556  A
O249       Co257   1.958       .  S
O250        C263   1.265       .  A
O250       Co258   1.982       .  S
O251        C263   1.272       .  A
O251       Co256   2.023   1_565  S
O252        C262   1.282       .  A
O252       Co255   2.035   1_465  S
O253        C260   1.265       .  A
O253       Co258   1.977   1_554  S
O254        C261   1.267       .  A
O254       Co257   1.909       .  S
Co255       O259   2.017   1_554  S
Co256       O259   2.005       .  S
Co257       O259   2.006   1_465  S
Co258       O259   2.031   1_565  S
C260        C469   1.488       .  S
C261        C796   1.494       .  S
C262        C325   1.475       .  S
C263        C268   1.484       .  S
C264        C265   1.404       .  A
C264        C269   1.402       .  A
C264        H274   1.083       .  S
C265        C266   1.411       .  A
C265        C270   1.491       .  S
C266        C267   1.405       .  A
C266        O271   1.372       .  S
C267        C268   1.405       .  A
C267        H272   1.084       .  S
C268        C269   1.410       .  A
C269        O273   1.371       .  S
C270        C275   1.407       .  A
C270        C279   1.402       .  A
O271        H287   0.991       .  S
O273        H284   0.993       .  S
C275        C276   1.404       .  A
C275        O280   1.372       .  S
C276        C277   1.415       .  A
C276        H281   1.076       .  S
C277        C278   1.418       .  A
C278        C279   1.404       .  A
C278        O282   1.372       .  S
C279        H283   1.084       .  S
O280        H285   0.992       .  S
O282        H286   0.992       .  S
C288        C289   1.399       .  A
C288        C293   1.401       .  A
C288        H298   1.084       .  S
C289        C290   1.407       .  A
C289        C294   1.493       .  S
C290        C291   1.409       .  A
C290        O295   1.371       .  S
C291        C292   1.414       .  A
C291        H296   1.082       .  S
C292        C293   1.420       .  A
C293        O297   1.368       .  S
C294        C299   1.407       .  A
C294        C303   1.404       .  A
O295        H311   0.991       .  S
O297        H308   0.993       .  S
C299        C300   1.402       .  A
C299        O304   1.373       .  S
C300        C301   1.408       .  A
C300        H305   1.074       .  S
C301        C302   1.418       .  A
C302        C303   1.408       .  A
C302        O306   1.371       .  S
C303        H307   1.083       .  S
O304        H309   0.992       .  S
O306        H310   0.991       .  S
C312        C313   1.398       .  A
C312        C317   1.400       .  A
C312        H322   1.084       .  S
C313        C314   1.405       .  A
C313        C318   1.477       .  S
C314        C315   1.400       .  A
C314        O319   1.373       .  S
C315        C316   1.410       .  A
C315        H320   1.076       .  S
C316        C317   1.419       .  A
C317        O321   1.373       .  S
C318        C323   1.406       .  A
C318        C327   1.402       .  A
O319        H335   0.991       .  S
O321        H332   0.992       .  S
C323        C324   1.400       .  A
C323        O328   1.373       .  S
C324        C325   1.404       .  A
C324        H329   1.084       .  S
C325        C326   1.411       .  A
C326        C327   1.400       .  A
C326        O330   1.372       .  S
C327        H331   1.084       .  S
O328        H333   0.993       .  S
O330        H334   0.992       .  S
C336        C337   1.404       .  A
C336        C341   1.401       .  A
C336        H346   1.082       .  S
C337        C338   1.407       .  A
C337        C342   1.487       .  S
C338        C339   1.400       .  A
C338        O343   1.371       .  S
C339        C340   1.408       .  A
C339        H344   1.081       .  S
C340        C341   1.414       .  A
C341        O345   1.370       .  S
C342        C347   1.409       .  A
C342        C351   1.405       .  A
O343        H359   0.992       .  S
O345        H356   0.992       .  S
C347        C348   1.404       .  A
C347        O352   1.372       .  S
C348        C349   1.406       .  A
C348        H353   1.083       .  S
C349        C350   1.410       .  A
C350        C351   1.398       .  A
C350        O354   1.372       .  S
C351        H355   1.084       .  S
O352        H357   0.991       .  S
O354        H358   0.992       .  S
C360        C361   1.402       .  A
C360        C365   1.398       .  A
C360        H370   1.084       .  S
C361        C362   1.410       .  A
C361        C366   1.484       .  S
C362        C363   1.405       .  A
C362        O367   1.372       .  S
C363        C364   1.404       .  A
C363        H368   1.083       .  S
C364        C365   1.411       .  A
C365        O369   1.371       .  S
C366        C371   1.408       .  A
C366        C375   1.406       .  A
O367        H383   0.991       .  S
O369        H380   0.991       .  S
C371        C372   1.399       .  A
C371        O376   1.371       .  S
C372        C373   1.401       .  A
C372        H377   1.081       .  S
C373        C374   1.405       .  A
C374        C375   1.405       .  A
C374        O378   1.374       .  S
C375        H379   1.084       .  S
O376        H381   0.991       .  S
O378        H382   0.991       .  S
C384        C385   1.403       .  A
C384        C389   1.395       .  A
C384        H394   1.083       .  S
C385        C386   1.411       .  A
C385        C390   1.489       .  S
C386        C387   1.400       .  A
C386        O391   1.371       .  S
C387        C388   1.407       .  A
C387        H392   1.081       .  S
C388        C389   1.414       .  A
C389        O393   1.371       .  S
C390        C395   1.411       .  A
C390        C399   1.406       .  A
O391        H407   0.991       .  S
O393        H404   0.993       .  S
C395        C396   1.394       .  A
C395        O400   1.372       .  S
C396        C397   1.404       .  A
C396        H401   1.082       .  S
C397        C398   1.413       .  A
C398        C399   1.401       .  A
C398        O402   1.371       .  S
C399        H403   1.083       .  S
O400        H405   0.991       .  S
O402        H406   0.991       .  S
C408        C409   1.402       .  A
C408        C413   1.403       .  A
C408        H418   1.084       .  S
C409        C410   1.404       .  A
C409        C414   1.479       .  S
C410        C411   1.398       .  A
C410        O415   1.372       .  S
C411        C412   1.409       .  A
C411        H416   1.083       .  S
C412        C413   1.414       .  A
C413        O417   1.372       .  S
C414        C419   1.401       .  A
C414        C423   1.401       .  A
O415        H431   0.992       .  S
O417        H428   0.991       .  S
C419        C420   1.398       .  A
C419        O424   1.372       .  S
C420        C421   1.415       .  A
C420        H425   1.076       .  S
C421        C422   1.418       .  A
C422        C423   1.404       .  A
C422        O426   1.372       .  S
C423        H427   1.084       .  S
O424        H429   0.991       .  S
O426        H430   0.991       .  S
C432        C433   1.401       .  A
C432        C437   1.399       .  A
C432        H442   1.084       .  S
C433        C434   1.405       .  A
C433        C438   1.472       .  S
C434        C435   1.398       .  A
C434        O439   1.371       .  S
C435        C436   1.403       .  A
C435        H440   1.083       .  S
C436        C437   1.410       .  A
C437        O441   1.372       .  S
C438        C443   1.403       .  A
C438        C447   1.401       .  A
O439        H455   0.992       .  S
O441        H452   0.992       .  S
C443        C444   1.394       .  A
C443        O448   1.372       .  S
C444        C445   1.407       .  A
C444        H449   1.082       .  S
C445        C446   1.412       .  A
C446        C447   1.404       .  A
C446        O450   1.372       .  S
C447        H451   1.084       .  S
O448        H453   0.992       .  S
O450        H454   0.992       .  S
C456        C457   1.399       .  A
C456        C461   1.400       .  A
C456        H466   1.084       .  S
C457        C458   1.401       .  A
C457        C462   1.475       .  S
C458        C459   1.398       .  A
C458        O463   1.372       .  S
C459        C460   1.412       .  A
C459        H464   1.077       .  S
C460        C461   1.417       .  A
C461        O465   1.372       .  S
C462        C467   1.406       .  A
C462        C471   1.397       .  A
O463        H479   0.992       .  S
O465        H476   0.991       .  S
C467        C468   1.401       .  A
C467        O472   1.372       .  S
C468        C469   1.408       .  A
C468        H473   1.083       .  S
C469        C470   1.417       .  A
C470        C471   1.400       .  A
C470        O474   1.372       .  S
C471        H475   1.084       .  S
O472        H477   0.992       .  S
O474        H478   0.993   1_565  S
C480        C481   1.401       .  A
C480        C485   1.398       .  A
C480        H490   1.084       .  S
C481        C482   1.404       .  A
C481        C486   1.468       .  S
C482        C483   1.397       .  A
C482        O487   1.371       .  S
C483        C484   1.403       .  A
C483        H488   1.083       .  S
C484        C485   1.405       .  A
C485        O489   1.371       .  S
C486        C491   1.403       .  A
C486        C495   1.400       .  A
O487        H503   0.992       .  S
O489        H500   0.991       .  S
C491        C492   1.397       .  A
C491        O496   1.371       .  S
C492        C493   1.403       .  A
C492        H497   1.084       .  S
C493        C494   1.409       .  A
C494        C495   1.398       .  A
C494        O498   1.372       .  S
C495        H499   1.084       .  S
O496        H501   0.992       .  S
O498        H502   0.992       .  S
C504        C505   1.401       .  A
C504        C509   1.397       .  A
C504        H514   1.084       .  S
C505        C506   1.406       .  A
C505        C510   1.473       .  S
C506        C507   1.401       .  A
C506        O511   1.371       .  S
C507        C508   1.402       .  A
C507        H512   1.083       .  S
C508        C509   1.410       .  A
C509        O513   1.372       .  S
C510        C515   1.402       .  A
C510        C519   1.399       .  A
O511        H527   0.993       .  S
O513        H524   0.992       .  S
C515        C516   1.394       .  A
C515        O520   1.372       .  S
C516        C517   1.411       .  A
C516        H521   1.080       .  S
C517        C518   1.418       .  A
C518        C519   1.403       .  A
C518        O522   1.371       .  S
C519        H523   1.083       .  S
O520        H525   0.992       .  S
O522        H526   0.991       .  S
C528        C529   1.401       .  A
C528        C533   1.403       .  A
C528        H538   1.084       .  S
C529        C530   1.405       .  A
C529        C534   1.479       .  S
C530        C531   1.402       .  A
C530        O535   1.371       .  S
C531        C532   1.408       .  A
C531        H536   1.083       .  S
C532        C533   1.412       .  A
C533        O537   1.371       .  S
C534        C539   1.400       .  A
C534        C543   1.401       .  A
O535        H551   0.992       .  S
O537        H548   0.990       .  S
C539        C540   1.396       .  A
C539        O544   1.372       .  S
C540        C541   1.413       .  A
C540        H545   1.083       .  S
C541        C542   1.419       .  A
C542        C543   1.406       .  A
C542        O546   1.368       .  S
C543        H547   1.084       .  S
O544        H549   0.991       .  S
O546        H550   0.992       .  S
C552        C553   1.401       .  A
C552        C557   1.397       .  A
C552        H562   1.084       .  S
C553        C554   1.407       .  A
C553        C558   1.472       .  S
C554        C555   1.399       .  A
C554        O559   1.371       .  S
C555        C556   1.400       .  A
C555        H560   1.083       .  S
C556        C557   1.410       .  A
C557        O561   1.372       .  S
C558        C563   1.404       .  A
C558        C567   1.403       .  A
O559        H575   0.991       .  S
O561        H572   0.992       .  S
C563        C564   1.393       .  A
C563        O568   1.372       .  S
C564        C565   1.404       .  A
C564        H569   1.083       .  S
C565        C566   1.411       .  A
C566        C567   1.402       .  A
C566        O570   1.371       .  S
C567        H571   1.083       .  S
O568        H573   0.992       .  S
O570        H574   0.992       .  S
C576        C577   1.402       .  A
C576        C581   1.396       .  A
C576        H586   1.084       .  S
C577        C578   1.404       .  A
C577        C582   1.466       .  S
C578        C579   1.395       .  A
C578        O583   1.372       .  S
C579        C580   1.403       .  A
C579        H584   1.083       .  S
C580        C581   1.405       .  A
C581        O585   1.371       .  S
C582        C587   1.403       .  A
C582        C591   1.400       .  A
O583        H599   0.992       .  S
O585        H596   0.991       .  S
C587        C588   1.394       .  A
C587        O592   1.372       .  S
C588        C589   1.405       .  A
C588        H593   1.083       .  S
C589        C590   1.409       .  A
C590        C591   1.397       .  A
C590        O594   1.371       .  S
C591        H595   1.084       .  S
O592        H597   0.992       .  S
O594        H598   0.991       .  S
C600        C601   1.407       .  A
C600        C605   1.404       .  A
C600        H610   1.083       .  S
C601        C602   1.408       .  A
C601        C606   1.489       .  S
C602        C603   1.399       .  A
C602        O607   1.372       .  S
C603        C604   1.406       .  A
C603        H608   1.084       .  S
C604        C605   1.410       .  A
C605        O609   1.371       .  S
C606        C611   1.405       .  A
C606        C615   1.403       .  A
O607        H623   0.991       .  S
O609        H620   0.991       .  S
C611        C612   1.400       .  A
C611        O616   1.373       .  S
C612        C613   1.414       .  A
C612        H617   1.074       .  S
C613        C614   1.417       .  A
C614        C615   1.404       .  A
C614        O618   1.372       .  S
C615        H619   1.083       .  S
O616        H621   0.992       .  S
O618        H622   0.992       .  S
C624        C625   1.402       .  A
C624        C629   1.404       .  A
C624        H634   1.083       .  S
C625        C626   1.405       .  A
C625        C630   1.488       .  S
C626        C627   1.398       .  A
C626        O631   1.372       .  S
C627        C628   1.410       .  A
C627        H632   1.078       .  S
C628        C629   1.421       .  A
C629        O633   1.370       .  S
C630        C635   1.411       .  A
C630        C639   1.407       .  A
O631        H647   0.992       .  S
O633        H644   0.992       .  S
C635        C636   1.400       .  A
C635        O640   1.372       .  S
C636        C637   1.400       .  A
C636        H641   1.083       .  S
C637        C638   1.405       .  A
C638        C639   1.403       .  A
C638        O642   1.371       .  S
C639        H643   1.083       .  S
O640        H645   0.991       .  S
O642        H646   0.993       .  S
C648        C649   1.402       .  A
C648        C653   1.403       .  A
C648        H658   1.084       .  S
C649        C650   1.403       .  A
C649        C654   1.474       .  S
C650        C651   1.396       .  A
C650        O655   1.372       .  S
C651        C652   1.407       .  A
C651        H656   1.083       .  S
C652        C653   1.414       .  A
C653        O657   1.371       .  S
C654        C659   1.401       .  A
C654        C663   1.398       .  A
O655        H671   0.992       .  S
O657        H668   0.992       .  S
C659        C660   1.398       .  A
C659        O664   1.372       .  S
C660        C661   1.413       .  A
C660        H665   1.075       .  S
C661        C662   1.418       .  A
C662        C663   1.400       .  A
C662        O666   1.373       .  S
C663        H667   1.084       .  S
O664        H669   0.992       .  S
O666        H670   0.993       .  S
C672        C673   1.398       .  A
C672        C677   1.400       .  A
C672        H682   1.083       .  S
C673        C674   1.412       .  A
C673        C678   1.494       .  S
C674        C675   1.407       .  A
C674        O679   1.372       .  S
C675        C676   1.407       .  A
C675        H680   1.070       .  S
C676        C677   1.424       .  A
C677        O681   1.374       .  S
C678        C683   1.415       .  A
C678        C687   1.402       .  A
O679        H695   0.991       .  S
O681        H692   0.992       .  S
C683        C684   1.408       .  A
C683        O688   1.372       .  S
C684        C685   1.403       .  A
C684        H689   1.083       .  S
C685        C686   1.413       .  A
C686        C687   1.399       .  A
C686        O690   1.372       .  S
C687        H691   1.083       .  S
O688        H693   0.992       .  S
O690        H694   0.991       .  S
C696        C697   1.405       .  A
C696        C701   1.403       .  A
C696        H706   1.083       .  S
C697        C698   1.410       .  A
C697        C702   1.483       .  S
C698        C699   1.399       .  A
C698        O703   1.372       .  S
C699        C700   1.401       .  A
C699        H704   1.084       .  S
C700        C701   1.405       .  A
C701        O705   1.371       .  S
C702        C707   1.410       .  A
C702        C711   1.394       .  A
O703        H719   0.993       .  S
O705        H716   0.991       .  S
C707        C708   1.411       .  A
C707        O712   1.371       .  S
C708        C709   1.409       .  A
C708        H713   1.079       .  S
C709        C710   1.422       .  A
C710        C711   1.391       .  A
C710        O714   1.373       .  S
C711        H715   1.084       .  S
O712        H717   0.992       .  S
O714        H718   0.992       .  S
C720        C721   1.401       .  A
C720        C725   1.408       .  A
C720        H730   1.083       .  S
C721        C722   1.406       .  A
C721        C726   1.490       .  S
C722        C723   1.399       .  A
C722        O727   1.372       .  S
C723        C724   1.411       .  A
C723        H728   1.078       .  S
C724        C725   1.421       .  A
C725        O729   1.373       .  S
C726        C731   1.412       .  A
C726        C735   1.405       .  A
O727        H743   0.992       .  S
O729        H740   0.992       .  S
C731        C732   1.404       .  A
C731        O736   1.372       .  S
C732        C733   1.402       .  A
C732        H737   1.084       .  S
C733        C734   1.405       .  A
C734        C735   1.401       .  A
C734        O738   1.372       .  S
C735        H739   1.083       .  S
O736        H741   0.992       .  S
O738        H742   0.992       .  S
C744        C745   1.402       .  A
C744        C749   1.401       .  A
C744        H754   1.084       .  S
C745        C746   1.404       .  A
C745        C750   1.476       .  S
C746        C747   1.394       .  A
C746        O751   1.372       .  S
C747        C748   1.407       .  A
C747        H752   1.083       .  S
C748        C749   1.411       .  A
C749        O753   1.371       .  S
C750        C755   1.410       .  A
C750        C759   1.403       .  A
O751        H767   0.992       .  S
O753        H764   0.991       .  S
C755        C756   1.399       .  A
C755        O760   1.372       .  S
C756        C757   1.399       .  A
C756        H761   1.083       .  S
C757        C758   1.405       .  A
C758        C759   1.395       .  A
C758        O762   1.371       .  S
C759        H763   1.084       .  S
O760        H765   0.991       .  S
O762        H766   0.992       .  S
C768        C769   1.402       .  A
C768        C773   1.402       .  A
C768        H778   1.084       .  S
C769        C770   1.404       .  A
C769        C774   1.477       .  S
C770        C771   1.398       .  A
C770        O775   1.372       .  S
C771        C772   1.407       .  A
C771        H776   1.082       .  S
C772        C773   1.414       .  A
C773        O777   1.370       .  S
C774        C779   1.407       .  A
C774        C783   1.401       .  A
O775        H791   0.991       .  S
O777        H788   0.991       .  S
C779        C780   1.402       .  A
C779        O784   1.372       .  S
C780        C781   1.403       .  A
C780        H785   1.084       .  S
C781        C782   1.410       .  A
C782        C783   1.398       .  A
C782        O786   1.372       .  S
C783        H787   1.084       .  S
O784        H789   0.991       .  S
O786        H790   0.991       .  S
C792        C793   1.404       .  A
C792        C797   1.405       .  A
C792        H802   1.083       .  S
C793        C794   1.412       .  A
C793        C798   1.496       .  S
C794        C795   1.404       .  A
C794        O799   1.371       .  S
C795        C796   1.406       .  A
C795        H800   1.083       .  S
C796        C797   1.416       .  A
C797        O801   1.372       .  S
C798        C803   1.407       .  A
C798        C807   1.403       .  A
O799        H815   0.992       .  S
O801        H812   0.992   1_455  S
C803        C804   1.404       .  A
C803        O808   1.372       .  S
C804        C805   1.415       .  A
C804        H809   1.079       .  S
C805        C806   1.419       .  A
C806        C807   1.405       .  A
C806        O810   1.372       .  S
C807        H811   1.083       .  S
O808        H813   0.992       .  S
O810        H814   0.993       .  S
C816        C817   1.404       .  A
C816        C821   1.400       .  A
C816        H826   1.083       .  S
C817        C818   1.408       .  A
C817        C822   1.492       .  S
C818        C819   1.400       .  A
C818        O823   1.372       .  S
C819        C820   1.412       .  A
C819        H824   1.081       .  S
C820        C821   1.416       .  A
C821        O825   1.370       .  S
C822        C827   1.410       .  A
C822        C831   1.407       .  A
O823        H839   0.992       .  S
O825        H836   0.991       .  S
C827        C828   1.399       .  A
C827        O832   1.372       .  S
C828        C829   1.405       .  A
C828        H833   1.083       .  S
C829        C830   1.411       .  A
C830        C831   1.404       .  A
C830        O834   1.371       .  S
C831        H835   1.083       .  S
O832        H837   0.992       .  S
O834        H838   0.992       .  S
C840        C841   1.406       .  A
C840        C845   1.412       .  A
C840        H850   1.083       .  S
C841        C842   1.403       .  A
C841        C846   1.490       .  S
C842        C843   1.396       .  A
C842        O847   1.373       .  S
C843        C844   1.414       .  A
C843        H848   1.082       .  S
C844        C845   1.416       .  A
C845        O849   1.369       .  S
C846        C851   1.409       .  A
C846        C855   1.405       .  A
O847        H863   0.992       .  S
O849        H860   0.991       .  S
C851        C852   1.400       .  A
C851        O856   1.372       .  S
C852        C853   1.405       .  A
C852        H857   1.084       .  S
C853        C854   1.412       .  A
C854        C855   1.409       .  A
C854        O858   1.371       .  S
C855        H859   1.083       .  S
O856        H861   0.991       .  S
O858        H862   0.992       .  S
C864        C865   1.403       .  A
C864        C869   1.398       .  A
C864        H874   1.083       .  S
C865        C866   1.409       .  A
C865        C870   1.478       .  S
C866        C867   1.400       .  A
C866        O871   1.372       .  S
C867        C868   1.402       .  A
C867        H872   1.084       .  S
C868        C869   1.408       .  A
C869        O873   1.372       .  S
C870        C875   1.408       .  A
C870        C879   1.401       .  A
O871        H887   0.992       .  S
O873        H884   0.992       .  S
C875        C876   1.401       .  A
C875        O880   1.372       .  S
C876        C877   1.403       .  A
C876        H881   1.083       .  S
C877        C878   1.412       .  A
C878        C879   1.398       .  A
C878        O882   1.372       .  S
C879        H883   1.084       .  S
O880        H885   0.991       .  S
O882        H886   0.992       .  S
C888        C889   1.405       .  A
C888        C893   1.399       .  A
C888        H898   1.083       .  S
C889        C890   1.412       .  A
C889        C894   1.496       .  S
C890        C891   1.401       .  A
C890        O895   1.371       .  S
C891        C892   1.406       .  A
C891        H896   1.082       .  S
C892        C893   1.416       .  A
C893        O897   1.371       .  S
C894        C899   1.413       .  A
C894        C903   1.405       .  A
O895        H911   0.991       .  S
O897        H908   0.992       .  S
C899        C900   1.398       .  A
C899        O904   1.372       .  S
C900        C901   1.407       .  A
C900        H905   1.081       .  S
C901        C902   1.415       .  A
C902        C903   1.401       .  A
C902        O906   1.370       .  S
C903        H907   1.082       .  S
O904        H909   0.992       .  S
O906        H910   0.992       .  S
C912        C913   1.408       .  A
C912        C917   1.411       .  A
C912        H922   1.083       .  S
C913        C914   1.412       .  A
C913        C918   1.505       .  S
C914        C915   1.403       .  A
C914        O919   1.372       .  S
C915        C916   1.408       .  A
C915        H920   1.079       .  S
C916        C917   1.417       .  A
C917        O921   1.371       .  S
C918        C923   1.415       .  A
C918        C927   1.405       .  A
O919        H935   0.992       .  S
O921        H932   0.991       .  S
C923        C924   1.411       .  A
C923        O928   1.371       .  S
C924        C925   1.406       .  A
C924        H929   1.083       .  S
C925        C926   1.415       .  A
C926        C927   1.404       .  A
C926        O930   1.372       .  S
C927        H931   1.083       .  S
O928        H933   0.991       .  S
O930        H934   0.992       .  S
C936        C937   1.400       .  A
C936        C941   1.403       .  A
C936        H946   1.084       .  S
C937        C938   1.410       .  A
C937        C942   1.494       .  S
C938        C939   1.411       .  A
C938        O943   1.371       .  S
C939        C940   1.409       .  A
C939        H944   1.083       .  S
C940        C941   1.418       .  A
C941        O945   1.372       .  S
C942        C947   1.403       .  A
C942        C951   1.404       .  A
O943        H959   0.992       .  S
O945        H956   0.992       .  S
C947        C948   1.405       .  A
C947        O952   1.372       .  S
C948        C949   1.418       .  A
C948        H953   1.076       .  S
C949        C950   1.418       .  A
C950        C951   1.410       .  A
C950        O954   1.371       .  S
C951        H955   1.083       .  S
O952        H957   0.991       .  S
O954        H958   0.991       .  S
C960        C961   1.403       .  A
C960        C965   1.404       .  A
C960        H970   1.084       .  S
C961        C962   1.408       .  A
C961        C966   1.488       .  S
C962        C963   1.403       .  A
C962        O967   1.372       .  S
C963        C964   1.406       .  A
C963        H968   1.083       .  S
C964        C965   1.414       .  A
C965        O969   1.371       .  S
C966        C971   1.410       .  A
C966        C975   1.405       .  A
O967        H983   0.991       .  S
O969        H980   0.992       .  S
C971        C972   1.403       .  A
C971        O976   1.371       .  S
C972        C973   1.403       .  A
C972        H977   1.084       .  S
C973        C974   1.409       .  A
C974        C975   1.403       .  A
C974        O978   1.371       .  S
C975        H979   1.084       .  S
O976        H981   0.991       .  S
O978        H982   0.992       .  S
C984        C985   1.402       .  A
C984        C989   1.405       .  A
C984        H994   1.084       .  S
C985        C986   1.406       .  A
C985        C990   1.488       .  S
C986        C987   1.405       .  A
C986        O991   1.371       .  S
C987        C988   1.410       .  A
C987        H992   1.083       .  S
C988        C989   1.415       .  A
C989        O993   1.371       .  S
C990        C995   1.402       .  A
C990        C999   1.404       .  A
O991       H1007   0.992       .  S
O993       H1004   0.992       .  S
C995        C996   1.399       .  A
C995       O1000   1.372       .  S
C996        C997   1.414       .  A
C996       H1001   1.082       .  S
C997        C998   1.418       .  A
C998        C999   1.410       .  A
C998       O1002   1.368       .  S
C999       H1003   1.083       .  S
O1000      H1005   0.991       .  S
O1002      H1006   0.992       .  S
C1008      C1009   1.398       .  A
C1008      C1013   1.398       .  A
C1008      H1018   1.084       .  S
C1009      C1010   1.410       .  A
C1009      C1014   1.497       .  S
C1010      C1011   1.414       .  A
C1010      O1015   1.371       .  S
C1011      C1012   1.412       .  A
C1011      H1016   1.070       .  S
C1012      C1013   1.423       .  A
C1013      O1017   1.374       .  S
C1014      C1019   1.412       .  A
C1014      C1023   1.408       .  A
O1015      H1031   0.992       .  S
O1017      H1028   0.992       .  S
C1019      C1020   1.402       .  A
C1019      O1024   1.373       .  S
C1020      C1021   1.401       .  A
C1020      H1025   1.083       .  S
C1021      C1022   1.411       .  A
C1022      C1023   1.412       .  A
C1022      O1026   1.371       .  S
C1023      H1027   1.083       .  S
O1024      H1029   0.992       .  S
O1026      H1030   0.992       .  S
