geometry optimzed in LAMMPS
_audit_creation_date              2020-12-01 
_audit_creation_method            'lammps2cif' 
_symmetry_space_group_name_H-M    'P1' 
_symmetry_Int_Tables_number       1 
_symmetry_cell_setting            triclinic 
loop_ 
_symmetry_equiv_pos_as_xyz 
  x,y,z 
_cell_length_a                    30.34212359 
_cell_length_b                    30.28693201484172 
_cell_length_c                    30.407696457081247 
_cell_angle_alpha                 90.07316564105787 
_cell_angle_beta                  90.0447308410449 
_cell_angle_gamma                 90.10901813487789 
loop_ 
_atom_site_label 
_atom_site_type_symbol 
_atom_site_fract_x 
_atom_site_fract_y 
_atom_site_fract_z 
_atom_site_charge 
O1          O  0.44850747  0.46770281  0.61903610    -0.73300
O2          O  0.55441524  0.53656325  0.61707914    -0.74300
O3          O  0.53582679  0.44926681  0.61813848    -0.62900
O4          O  0.46740130  0.55509753  0.61749385    -0.71300
O5          O  0.45357606  0.55281840  0.68848150    -0.70900
O6          O  0.55094596  0.45347397  0.68877288    -0.62100
O7          O  0.55151486  0.55223270  0.68769438    -0.74700
O8          O  0.45231256  0.45431970  0.68999358    -0.73400
Cu9        Cu  0.50153389  0.50211823  0.61662131     1.04600
Cu10       Cu  0.50217719  0.50322728  0.69266843     1.04300
C11         C  0.43473102  0.44659970  0.65220403     0.92900
C12         C  0.56809597  0.55910759  0.64936901     0.92000
C13         C  0.55776514  0.43582532  0.65082972     0.84100
C14         C  0.44612715  0.56941817  0.65024518     0.90400
O15         O  0.70004138  0.44613967  0.53430748    -0.73300
O16         O  0.70268834  0.54317454  0.43539621    -0.74300
O17         O  0.70295379  0.54486715  0.53333274    -0.62900
O18         O  0.69996583  0.44439469  0.43614168    -0.71300
O19         O  0.62833732  0.44665113  0.44658552    -0.70900
O20         O  0.63110188  0.54627201  0.52378589    -0.62100
O21         O  0.63063845  0.53475499  0.43606570    -0.74700
O22         O  0.62847379  0.45799721  0.53442731    -0.73400
Cu23       Cu  0.70518885  0.49453431  0.48479602     1.04600
Cu24       Cu  0.62835890  0.49645515  0.48520286     1.04300
C25         C  0.66138710  0.43755600  0.54952111     0.92900
C26         C  0.66435653  0.55367211  0.42068690     0.92000
C27         C  0.66498903  0.56116712  0.54301745     0.84100
C28         C  0.66105397  0.43003325  0.42689587     0.90400
O29         O  0.55307407  0.70070842  0.43329290    -0.73300
O30         O  0.45763816  0.70537561  0.53380836    -0.74300
O31         O  0.55534231  0.70188158  0.53087769    -0.62900
O32         O  0.45527057  0.70391654  0.43553013    -0.71300
O33         O  0.46775326  0.63242437  0.43251393    -0.70900
O34         O  0.53837287  0.63133482  0.53629431    -0.62100
O35         O  0.45078857  0.63436089  0.52001082    -0.74700
O36         O  0.55512037  0.62982961  0.44906128    -0.73400
Cu37       Cu  0.50542290  0.70692748  0.48332249     1.04600
Cu38       Cu  0.50292057  0.63061353  0.48448039     1.04300
C39         C  0.56893859  0.66195991  0.42632913     0.92900
C40         C  0.43950515  0.66787999  0.54219867     0.92000
C41         C  0.56169078  0.66376607  0.54837599     0.84100
C42         C  0.44673745  0.66574080  0.41897442     0.90400
O43         O  0.30105965  0.55669901  0.53538853    -0.73300
O44         O  0.29543985  0.45689061  0.43881804    -0.74300
O45         O  0.29721786  0.45878695  0.53683489    -0.62900
O46         O  0.29893815  0.55547974  0.43709814    -0.71300
O47         O  0.37072479  0.55293455  0.44660116    -0.70900
O48         O  0.36888037  0.45577471  0.52586169    -0.62100
O49         O  0.36754332  0.46461340  0.43774851    -0.74700
O50         O  0.37253382  0.54415804  0.53463146    -0.73400
Cu51       Cu  0.29438714  0.50711261  0.48705769     1.04600
Cu52       Cu  0.37121373  0.50433101  0.48613334     1.04300
C53         C  0.34003016  0.56508558  0.55001458     0.92900
C54         C  0.33332040  0.44551822  0.42355921     0.92000
C55         C  0.33519077  0.44256783  0.54646753     0.84100
C56         C  0.33781790  0.56904759  0.42686770     0.90400
O57         O  0.54181419  0.29388291  0.44046757    -0.73300
O58         O  0.44301919  0.30033562  0.53804606    -0.74300
O59         O  0.44308431  0.29755941  0.43975576    -0.62900
O60         O  0.54148787  0.29635353  0.53866585    -0.71300
O61         O  0.54561479  0.36757819  0.52527989    -0.70900
O62         O  0.44431899  0.36939895  0.45010986    -0.62100
O63         O  0.45752257  0.37155904  0.53781992    -0.74700
O64         O  0.53227885  0.36574498  0.43732997    -0.73400
Cu65       Cu  0.49215104  0.29321190  0.48931792     1.04600
Cu66       Cu  0.49497584  0.36986029  0.48758650     1.04300
C67         C  0.55207984  0.33162195  0.42390705     0.92900
C68         C  0.43574162  0.33943775  0.55301283     0.92000
C69         C  0.42856444  0.33628798  0.43012350     0.84100
C70         C  0.55895163  0.33432926  0.54662078     0.90400
O71         O  0.54496467  0.44494022  0.28565083    -0.73300
O72         O  0.45137035  0.54715618  0.28449450    -0.74300
O73         O  0.54911695  0.54359049  0.28434460    -0.62900
O74         O  0.44684414  0.44895218  0.28515075    -0.71300
O75         O  0.45789843  0.44883968  0.35664282    -0.70900
O76         O  0.53890695  0.54522482  0.35596379    -0.62100
O77         O  0.45043825  0.53731253  0.35622894    -0.74700
O78         O  0.54604906  0.45649800  0.35713752    -0.73400
Cu79       Cu  0.49811116  0.49606900  0.28114855     1.04600
Cu80       Cu  0.49833199  0.49695581  0.35781822     1.04300
C81         C  0.55987926  0.43537584  0.32411061     0.92900
C82         C  0.43662140  0.55769056  0.32274441     0.92000
C83         C  0.55907957  0.55937252  0.32240587     0.84100
C84         C  0.43696482  0.43442185  0.32364790     0.90400
C85         C  0.65631251  0.65267648  0.63474056     0.86100
C86         C  0.68201323  0.62198857  0.60183644    -0.54100
C87         C  0.65489863  0.59557254  0.57721030     0.09000
C88         C  0.60621352  0.60310845  0.58781909     0.20000
C89         C  0.62365307  0.67872559  0.60436991    -0.54900
C90         C  0.59687585  0.65201808  0.58043893     0.09100
C91         C  0.62665742  0.62066355  0.66221963    -0.54400
C92         C  0.60053178  0.59419799  0.63689616     0.09700
H93         H  0.71760112  0.62145914  0.59847660     0.14200
H94         H  0.58439460  0.58237946  0.56767042     0.00000
H95         H  0.62216354  0.71420147  0.60072084     0.14500
H96         H  0.62686589  0.61910780  0.69788979     0.14300
C97         C  0.85354550  0.84264093  0.83178734     0.86100
C98         C  0.82584296  0.87558510  0.86010738    -0.54100
C99         C  0.85100134  0.90250141  0.88589530     0.09000
C100        C  0.90030111  0.89345922  0.88070526     0.20000
C101        C  0.88716310  0.87224767  0.80564806    -0.54900
C102        C  0.91162848  0.89938929  0.83206081     0.09100
C103        C  0.88338574  0.81733551  0.86554666    -0.54400
C104        C  0.90763217  0.84474136  0.89149913     0.09700
H105        H  0.79010007  0.87706575  0.85965754     0.14200
H106        H  0.92023733  0.91506220  0.90179281     0.00000
H107        H  0.89144482  0.87128963  0.77021294     0.14500
H108        H  0.88640527  0.78186046  0.86808501     0.14300
C109        C  0.64970166  0.34523589  0.63874638     0.86100
C110        C  0.67599275  0.37793435  0.60860364    -0.54100
C111        C  0.64961473  0.40332894  0.58283024     0.09000
C112        C  0.60063090  0.39426355  0.59040292     0.20000
C113        C  0.61808899  0.37650077  0.66542829    -0.54900
C114        C  0.59181850  0.40188753  0.63928648     0.09100
C115        C  0.61868628  0.31882587  0.60683090    -0.54400
C116        C  0.59280206  0.34528455  0.58118132     0.09700
H117        H  0.71155950  0.38149597  0.60836078     0.14200
H118        H  0.57982258  0.41536606  0.56978298     0.00000
H119        H  0.61712867  0.37914173  0.70097948     0.14500
H120        H  0.61771159  0.28303312  0.60492884     0.14300
C121        C  0.84906223  0.14775255  0.82694415     0.86100
C122        C  0.88069316  0.17519503  0.85748632    -0.54100
C123        C  0.90550342  0.14953647  0.88480012     0.09000
C124        C  0.89674287  0.10025022  0.87796220     0.20000
C125        C  0.88100101  0.11529467  0.80207348    -0.54900
C126        C  0.90584128  0.09008183  0.82961309     0.09100
C127        C  0.82192380  0.11776405  0.85899927    -0.54400
C128        C  0.84761274  0.09284782  0.88612514     0.09700
H129        H  0.88288907  0.21095631  0.85749758     0.14200
H130        H  0.91708108  0.07971465  0.89949139     0.00000
H131        H  0.88504541  0.11306276  0.76669805     0.14500
H132        H  0.78617052  0.11694379  0.86012522     0.14300
C133        C  0.35344427  0.65838121  0.63847478     0.86100
C134        C  0.38284201  0.68455412  0.60478746    -0.54100
C135        C  0.40812648  0.65761313  0.57892534     0.09000
C136        C  0.40148066  0.60877315  0.58969450     0.20000
C137        C  0.32655410  0.62576263  0.60840599    -0.54900
C138        C  0.35247456  0.59933573  0.58320519     0.09100
C139        C  0.38616219  0.62865529  0.66473124    -0.54400
C140        C  0.41166152  0.60268646  0.63854759     0.09700
H141        H  0.38264236  0.72014894  0.60104698     0.14200
H142        H  0.42205352  0.58730683  0.56912196     0.00000
H143        H  0.29094339  0.62452090  0.60586324     0.14500
H144        H  0.38860018  0.62839723  0.70036617     0.14300
C145        C  0.15991049  0.84692540  0.83997620     0.86100
C146        C  0.12646287  0.82015714  0.86885430    -0.54100
C147        C  0.09901893  0.84634334  0.89308781     0.09000
C148        C  0.10808803  0.89542587  0.88580642     0.20000
C149        C  0.13069744  0.87911488  0.81182828    -0.54900
C150        C  0.10312047  0.90456170  0.83661105     0.09100
C151        C  0.18431769  0.87849518  0.87308761    -0.54400
C152        C  0.15637074  0.90360617  0.89742542     0.09700
H153        H  0.12513850  0.78434826  0.86996121     0.14200
H154        H  0.08612818  0.91616998  0.90550168     0.00000
H155        H  0.13219507  0.88168642  0.77627431     0.14500
H156        H  0.21963695  0.88206568  0.87649460     0.14300
C157        C  0.65494218  0.64625553  0.33131327     0.86100
C158        C  0.62081627  0.61700012  0.30579977    -0.54100
C159        C  0.59455271  0.59237658  0.33276615     0.09000
C160        C  0.60513971  0.59972941  0.38131308     0.20000
C161        C  0.62689221  0.67412791  0.36459155    -0.54900
C162        C  0.60049032  0.64898043  0.39079387     0.09100
C163        C  0.68072025  0.61310151  0.36162863    -0.54400
C164        C  0.65374231  0.58836921  0.38754824     0.09700
H165        H  0.61824135  0.61587586  0.27020732     0.14200
H166        H  0.58363835  0.58008897  0.40267202     0.00000
H167        H  0.62833563  0.70980469  0.36741483     0.14500
H168        H  0.71620687  0.60995783  0.36373181     0.14300
C169        C  0.84392499  0.84518003  0.13492381     0.86100
C170        C  0.81816742  0.87521616  0.10150318    -0.54100
C171        C  0.84507950  0.90057064  0.07608680     0.09000
C172        C  0.89374765  0.89400648  0.08717200     0.20000
C173        C  0.87760367  0.81867819  0.10617079    -0.54900
C174        C  0.90402747  0.84503643  0.08100919     0.09100
C175        C  0.87273036  0.87891986  0.16182771    -0.54400
C176        C  0.89950026  0.90425347  0.13608338     0.09700
H177        H  0.78264130  0.87747157  0.09880621     0.14200
H178        H  0.91481413  0.91497333  0.06672397     0.00000
H179        H  0.88012983  0.78292209  0.10617086     0.14500
H180        H  0.87184050  0.88245290  0.19732848     0.14300
C181        C  0.34287490  0.35525529  0.64130204     0.86100
C182        C  0.37400615  0.38716404  0.66763357    -0.54100
C183        C  0.40068356  0.41215171  0.64130932     0.09000
C184        C  0.39384157  0.40204977  0.59256808     0.20000
C185        C  0.31778009  0.38556047  0.60767097    -0.54900
C186        C  0.34530073  0.41033777  0.58228295     0.09100
C187        C  0.37443346  0.32747475  0.61121931    -0.54400
C188        C  0.40169444  0.35267048  0.58604527     0.09700
H189        H  0.37441589  0.38961954  0.70325007     0.14200
H190        H  0.41563357  0.42190796  0.57167752     0.00000
H191        H  0.28253615  0.38602872  0.60231597     0.14500
H192        H  0.37478584  0.29168213  0.60975244     0.14300
C193        C  0.15506851  0.15539681  0.83892098     0.86100
C194        C  0.12187694  0.18000841  0.87014697    -0.54100
C195        C  0.09641219  0.15228430  0.89422199     0.09000
C196        C  0.10587734  0.10383645  0.88456440     0.20000
C197        C  0.18128346  0.12338933  0.86991337    -0.54900
C198        C  0.15472719  0.09595205  0.89389827     0.09100
C199        C  0.12463446  0.12428638  0.81051340    -0.54400
C200        C  0.09853186  0.09698864  0.83523952     0.09700
H201        H  0.11714935  0.21522885  0.87277164     0.14200
H202        H  0.08488340  0.08225305  0.90440887     0.00000
H203        H  0.21696484  0.12283769  0.87238659     0.14500
H204        H  0.12375512  0.12444964  0.77483033     0.14300
C205        C  0.35258284  0.65532319  0.33146114     0.86100
C206        C  0.38122181  0.62025292  0.30611874    -0.54100
C207        C  0.40548832  0.59428901  0.33329332     0.09000
C208        C  0.39929530  0.60601415  0.38163424     0.20000
C209        C  0.32485775  0.62728156  0.36489930    -0.54900
C210        C  0.35014675  0.60133027  0.39154871     0.09100
C211        C  0.38660964  0.68130235  0.36032325    -0.54400
C212        C  0.41118942  0.65472709  0.38675166     0.09700
H213        H  0.38298264  0.61557107  0.27093023     0.14200
H214        H  0.41956775  0.58516506  0.40299212     0.00000
H215        H  0.28915027  0.62808020  0.36691863     0.14500
H216        H  0.39070388  0.71691154  0.35958307     0.14300
C217        C  0.15012638  0.84753318  0.14406340     0.86100
C218        C  0.11719306  0.87787456  0.16989553    -0.54100
C219        C  0.09191965  0.90372317  0.14309204     0.09000
C220        C  0.10244912  0.89651550  0.09444289     0.20000
C221        C  0.12032916  0.82120233  0.11064354    -0.54900
C222        C  0.09544880  0.84762926  0.08463703     0.09100
C223        C  0.17726844  0.87999380  0.11415259    -0.54400
C224        C  0.15144627  0.90617993  0.08816123     0.09700
H225        H  0.11442776  0.87852110  0.20547879     0.14200
H226        H  0.08203066  0.91707317  0.07306167    -0.02400
H227        H  0.11895895  0.78579457  0.10628190     0.14500
H228        H  0.21299505  0.88185657  0.11390672     0.14300
C229        C  0.64579352  0.33960879  0.33486641     0.86100
C230        C  0.61555472  0.37262679  0.30892587    -0.54100
C231        C  0.59174330  0.39964161  0.33547650     0.09000
C232        C  0.59925833  0.39007287  0.38415158     0.20000
C233        C  0.67363000  0.36928360  0.36683740    -0.54900
C234        C  0.64850026  0.39595259  0.39299613     0.09100
C235        C  0.61240513  0.31408320  0.36518534    -0.54400
C236        C  0.58792949  0.34138385  0.39129086     0.09700
H237        H  0.61232858  0.37404681  0.27344752     0.14200
H238        H  0.57931126  0.41167350  0.40503823     0.00000
H239        H  0.70938407  0.36920557  0.36804857     0.14500
H240        H  0.60760724  0.27858332  0.36496792     0.14300
C241        C  0.84159865  0.14998128  0.13575844     0.86100
C242        C  0.87405867  0.11915125  0.16169134    -0.54100
C243        C  0.90037482  0.09460956  0.13521961     0.09000
C244        C  0.89101331  0.10222478  0.08658472     0.20000
C245        C  0.87162098  0.17724055  0.10370739    -0.54900
C246        C  0.89776035  0.15141892  0.07763473     0.09100
C247        C  0.81546377  0.11702227  0.10527576    -0.54400
C248        C  0.84219877  0.09200829  0.07905090     0.09700
H249        H  0.87549973  0.11559138  0.19706646     0.14200
H250        H  0.91230427  0.08162686  0.06606445     0.00000
H251        H  0.87209854  0.21305861  0.10231944     0.14500
H252        H  0.77988814  0.11341642  0.10510242     0.14300
C253        C  0.33975646  0.34971082  0.33665717     0.86100
C254        C  0.36876279  0.32249551  0.36963134    -0.54100
C255        C  0.39577278  0.34815144  0.39498290     0.09000
C256        C  0.39106073  0.39716858  0.38436257     0.20000
C257        C  0.31505753  0.38443284  0.36637749    -0.54900
C258        C  0.34282803  0.40936055  0.39132334     0.09100
C259        C  0.37335567  0.37816830  0.30959957    -0.54400
C260        C  0.40074107  0.40289246  0.33539345     0.09700
H261        H  0.36769877  0.28677646  0.37238580     0.14200
H262        H  0.41290338  0.41743242  0.40476359     0.00000
H263        H  0.27994089  0.39002695  0.36779944     0.14500
H264        H  0.37515299  0.37835873  0.27394652     0.14300
C265        C  0.14609225  0.15667088  0.14016960     0.86100
C266        C  0.11549199  0.12446672  0.16687075    -0.54100
C267        C  0.09109798  0.09694361  0.14069068     0.09000
C268        C  0.09945071  0.10526697  0.09179924     0.20000
C269        C  0.17387479  0.12602058  0.10937639    -0.54900
C270        C  0.14875002  0.09891349  0.08381915     0.09100
C271        C  0.11355826  0.18147624  0.10834743    -0.54400
C272        C  0.08912502  0.15372216  0.08301313     0.09700
H273        H  0.11378478  0.12362475  0.20249880     0.14200
H274        H  0.07955652  0.08357627  0.07087689     0.00000
H275        H  0.20963598  0.12611745  0.10809826     0.14500
H276        H  0.10897599  0.21675409  0.10580643     0.14300
O277        O  0.13183746  0.04079901  0.94181330    -0.73300
O278        O  0.12988515  0.96040501  0.03866957    -0.74300
O279        O  0.12911156  0.04898372  0.02980954    -0.62900
O280        O  0.13186872  0.95224153  0.95054266    -0.71300
O281        O  0.20402417  0.95265566  0.94315828    -0.70900
O282        O  0.20060527  0.05093196  0.04157113    -0.62100
O283        O  0.20178189  0.95198295  0.04136882    -0.74700
O284        O  0.20349192  0.05147357  0.94347404    -0.73400
Cu285      Cu  0.12937845  0.00059185  0.99018879     1.04600
Cu286      Cu  0.20620874  0.00176882  0.99249779     1.04300
C287        C  0.16537764  0.06110069  0.92754273     0.92900
C288        C  0.16306851  0.94120299  0.05501324     0.92000
C289        C  0.16161017  0.06517757  0.05018770     0.84100
C290        C  0.16598369  0.93734334  0.93205870     0.90400
O291        O  0.04364960  0.20216744  0.03483227    -0.73300
O292        O  0.94837955  0.20061018  0.93355291    -0.74300
O293        O  0.94521007  0.20175193  0.03234628    -0.62900
O294        O  0.04658119  0.20116926  0.93722756    -0.71300
O295        O  0.04443376  0.12886722  0.94463047    -0.70900
O296        O  0.94887280  0.12963620  0.02540685    -0.62100
O297        O  0.95641044  0.12857966  0.93725037    -0.74700
O298        O  0.03722433  0.12978639  0.03258548    -0.73400
Cu299      Cu  0.99587793  0.20514953  0.98444959     1.04600
Cu300      Cu  0.99666680  0.12793044  0.98498847     1.04300
C301        C  0.05504434  0.16377338  0.04891542     0.92900
C302        C  0.93829338  0.16167703  0.91972775     0.92000
C303        C  0.93174579  0.16302904  0.04352204     0.84100
C304        C  0.06108849  0.16262752  0.92681155     0.90400
O305        O  0.95531192  0.04610865  0.11420497    -0.73300
O306        O  0.03849734  0.95253754  0.11919126    -0.74300
O307        O  0.95007000  0.95754842  0.11508328    -0.62900
O308        O  0.04377585  0.04122990  0.11814922    -0.71300
O309        O  0.04318455  0.05069439  0.18979149    -0.70900
O310        O  0.94585108  0.95002750  0.18688867    -0.62100
O311        O  0.04470613  0.95148649  0.19116680    -0.74700
O312        O  0.94496029  0.04825831  0.18586497    -0.73400
Cu313      Cu  0.99703376  0.99930851  0.11538608     1.04600
Cu314      Cu  0.99457101  0.00013187  0.19214448     1.04300
C315        C  0.93512570  0.06181991  0.14698638     0.92900
C316        C  0.05670832  0.93705389  0.15319794     0.92000
C317        C  0.93287445  0.93893614  0.14804716     0.84100
C318        C  0.05822420  0.06133206  0.15163865     0.90400
O319        O  0.86573601  0.03729040  0.03141095    -0.73300
O320        O  0.87047074  0.95860694  0.93385631    -0.74300
O321        O  0.86837479  0.04693988  0.94330801    -0.62900
O322        O  0.86788535  0.94907620  0.02188459    -0.71300
O323        O  0.79588611  0.94801314  0.03023642    -0.70900
O324        O  0.79707663  0.04505211  0.93040937    -0.62100
O325        O  0.79896781  0.94657956  0.93203572    -0.74700
O326        O  0.79399164  0.04673944  0.02923512    -0.73400
Cu327      Cu  0.86936097  0.99804447  0.98267036     1.04600
Cu328      Cu  0.79266723  0.99656776  0.98037243     1.04300
C329        C  0.83187478  0.05691228  0.04553654     0.92900
C330        C  0.83804199  0.93764068  0.91814097     0.92000
C331        C  0.83557852  0.06067853  0.92168162     0.84100
C332        C  0.83430280  0.93357923  0.04099250     0.90400
O333        O  0.05424111  0.95972402  0.85623086    -0.73300
O334        O  0.95511827  0.03684302  0.85362237    -0.74300
O335        O  0.96599402  0.94834532  0.85473085    -0.62900
O336        O  0.04332047  0.04795941  0.85515441    -0.71300
O337        O  0.05591521  0.04742807  0.78404863    -0.70900
O338        O  0.95734452  0.94755078  0.78292585    -0.62100
O339        O  0.95686002  0.04632997  0.78194508    -0.74700
O340        O  0.05606597  0.94827943  0.78486343    -0.73400
Cu341      Cu  0.00467845  0.99824206  0.85616523     1.04600
Cu342      Cu  0.00664355  0.99738414  0.77965305     1.04300
C343        C  0.07024456  0.93925521  0.82374445     0.92900
C344        C  0.94047868  0.05609851  0.81979776     0.92000
C345        C  0.94682431  0.93269721  0.82121803     0.84100
C346        C  0.06432147  0.06307428  0.82259145     0.90400
O347        O  0.04291040  0.86825870  0.94010366    -0.73300
O348        O  0.96068016  0.86752437  0.03508559    -0.74300
O349        O  0.04905579  0.86897082  0.02840029    -0.62900
O350        O  0.95437926  0.86778883  0.94686372    -0.71300
O351        O  0.95504228  0.79575420  0.93709055    -0.70900
O352        O  0.04946604  0.79707858  0.03874626    -0.62100
O353        O  0.95110516  0.79553152  0.03491398    -0.74700
O354        O  0.05342081  0.79644592  0.94043719    -0.73400
Cu355      Cu  0.00176566  0.86942207  0.98761779     1.04600
Cu356      Cu  0.00233894  0.79241928  0.98780600     1.04300
C357        C  0.06340061  0.83497212  0.92555689     0.92900
C358        C  0.94039685  0.83398496  0.04941037     0.92000
C359        C  0.06367178  0.83587466  0.04887343     0.84100
C360        C  0.94007310  0.83414281  0.92686651     0.90400
C361        C  0.23257498  0.19072099  0.22619697    -0.28600
C362        C  0.23284662  0.23681913  0.22258343     0.05000
C363        C  0.20531663  0.25713505  0.19168357     0.24600
C364        C  0.17737981  0.23184645  0.16528539    -0.13100
C365        C  0.17577757  0.18541811  0.16923227    -0.27000
C366        C  0.20430228  0.16522242  0.19996949     0.35400
C367        C  0.26001912  0.26414390  0.25242714     0.05000
F368        F  0.20573474  0.30169978  0.18679562    -0.20800
H369        H  0.15781764  0.24963154  0.14167444     0.14900
F370        F  0.20471142  0.12067170  0.20478289    -0.24500
H371        H  0.25363453  0.17455482  0.24999908     0.16600
C372        C  0.23956957  0.29358904  0.28145070     0.24600
C373        C  0.26472665  0.32094170  0.30860360    -0.13000
C374        C  0.31122802  0.31990996  0.30739534    -0.27100
C375        C  0.33153891  0.28956386  0.27840483     0.35600
C376        C  0.30611540  0.26194072  0.25137459    -0.28700
F377        F  0.19492699  0.29549896  0.28391502    -0.20800
H378        H  0.24680227  0.34221759  0.33045292     0.14900
F379        F  0.37612606  0.28684309  0.27594707    -0.24500
H380        H  0.32239669  0.23934164  0.22905726     0.16700
C381        C  0.71860775  0.24417501  0.29219871    -0.28600
C382        C  0.73003883  0.25902285  0.24993651     0.05000
C383        C  0.71530040  0.30069097  0.23633382     0.24600
C384        C  0.68875220  0.32626216  0.26385298    -0.13100
C385        C  0.67493868  0.31070476  0.30538186    -0.27000
C386        C  0.69205818  0.26986688  0.31994790     0.35400
C387        C  0.75862624  0.23189391  0.22077780     0.05000
F388        F  0.72802480  0.31756829  0.19699795    -0.20800
H389        H  0.68009304  0.35893937  0.25255162     0.14900
F390        F  0.68418918  0.25497165  0.36126383    -0.24500
H391        H  0.73042433  0.21252534  0.30386364     0.16600
C392        C  0.79883045  0.21511369  0.23615585     0.24600
C393        C  0.82569246  0.18991794  0.20856618    -0.13000
C394        C  0.81277832  0.17943001  0.16511336    -0.27100
C395        C  0.77359906  0.19871555  0.14904911     0.35600
C396        C  0.74666836  0.22398543  0.17679779    -0.28700
F397        F  0.81298641  0.22432378  0.27753656    -0.20800
H398        H  0.85718534  0.17976925  0.22157572     0.14900
F399        F  0.76124479  0.19349772  0.10646388    -0.24500
H400        H  0.71619973  0.23735411  0.16386969     0.16700
C401        C  0.23775167  0.81563922  0.23007188    -0.28600
C402        C  0.23671772  0.76936842  0.22857015     0.05000
C403        C  0.20564321  0.74840834  0.20151898     0.24600
C404        C  0.17729447  0.77313925  0.17525493    -0.13100
C405        C  0.17930805  0.81973260  0.17459600    -0.27000
C406        C  0.20947748  0.84062486  0.20339568     0.35400
C407        C  0.26835230  0.74259458  0.25431898     0.05000
F408        F  0.20240495  0.70367387  0.20072160    -0.20800
H409        H  0.15389939  0.75461519  0.15597770     0.14900
F410        F  0.21219205  0.88532352  0.20519982    -0.24500
H411        H  0.26125337  0.83243241  0.25113022     0.16600
C412        C  0.29440950  0.71078362  0.23320003     0.24600
C413        C  0.32163371  0.68293345  0.25750004    -0.13000
C414        C  0.32400272  0.68617020  0.30372308    -0.27100
C415        C  0.29880452  0.71934404  0.32460248     0.35600
C416        C  0.27140609  0.74722907  0.30008983    -0.28700
F417        F  0.29363614  0.70665585  0.18873152    -0.20800
H418        H  0.34013467  0.65895230  0.23910654     0.14900
F419        F  0.30043583  0.72460124  0.36892519    -0.24500
H420        H  0.25172060  0.77174794  0.31696786     0.16700
C421        C  0.24553459  0.30751376  0.70882649    -0.28600
C422        C  0.26455294  0.26939978  0.72699279     0.05000
C423        C  0.30912739  0.26065561  0.71830045     0.24600
C424        C  0.33375408  0.28915446  0.69171396    -0.13100
C425        C  0.31447226  0.32640409  0.67164054    -0.27000
C426        C  0.27010350  0.33614218  0.68223493     0.35400
C427        C  0.23825013  0.24027620  0.75654532     0.05000
F428        F  0.32938911  0.22522377  0.73655625    -0.20800
H429        H  0.36828246  0.28182315  0.68675143     0.14900
F430        F  0.25053792  0.37417388  0.66935166    -0.24500
H431        H  0.21144181  0.31546870  0.71558965     0.16600
C432        C  0.21323484  0.25848782  0.79083277     0.24600
C433        C  0.18758736  0.23149509  0.81786672    -0.13000
C434        C  0.18535310  0.18531087  0.81131403    -0.27100
C435        C  0.21252407  0.16696473  0.77834893     0.35600
C436        C  0.23817479  0.19416856  0.75108306    -0.28700
F437        F  0.21429387  0.30256886  0.79903454    -0.20800
H438        H  0.17050488  0.24778344  0.84421032     0.14900
F439        F  0.21395276  0.12261268  0.77211366    -0.24500
H440        H  0.25752713  0.17915638  0.72518298     0.16700
C441        C  0.80590887  0.76862142  0.22866871    -0.28600
C442        C  0.76270441  0.75768669  0.21603439     0.05000
C443        C  0.74655460  0.77421551  0.17599136     0.24600
C444        C  0.77254629  0.80212460  0.15008000    -0.13100
C445        C  0.81536053  0.81469633  0.16337832    -0.27000
C446        C  0.83231397  0.79572816  0.20229724     0.35400
C447        C  0.73510734  0.72846174  0.24424663     0.05000
F448        F  0.70614380  0.76212012  0.16097608    -0.20800
H449        H  0.75910064  0.81250350  0.11890391     0.14900
F450        F  0.87462862  0.80290937  0.21492655    -0.24500
H451        H  0.81942011  0.75608954  0.25916226     0.16600
C452        C  0.75246751  0.68948736  0.26230301     0.24600
C453        C  0.72678155  0.66294113  0.28980035    -0.13000
C454        C  0.68302070  0.67445660  0.30032416    -0.27100
C455        C  0.66488405  0.71206757  0.27974182     0.35600
C456        C  0.69093464  0.73912647  0.25298355    -0.28700
F457        F  0.79397308  0.67619443  0.25231447    -0.20800
H458        H  0.74143031  0.63271062  0.30154383     0.14900
F459        F  0.62190685  0.72296956  0.28557388    -0.24500
H460        H  0.67648359  0.76877700  0.23924674     0.16700
C461        C  0.20026049  0.76989331  0.74800878    -0.28600
C462        C  0.24487981  0.76354099  0.75865106     0.05000
C463        C  0.26125173  0.78251708  0.79757345     0.24600
C464        C  0.23405488  0.80875471  0.82398483    -0.13100
C465        C  0.18969419  0.81688727  0.81238717    -0.27000
C466        C  0.17272431  0.79505106  0.77501447     0.35400
C467        C  0.27346187  0.73627397  0.72949481     0.05000
F468        F  0.30316485  0.77454353  0.81101581    -0.20800
H469        H  0.24803407  0.82127920  0.85408843     0.14900
F470        F  0.12940355  0.79808276  0.76430983    -0.24500
H471        H  0.18649556  0.75536096  0.71840086     0.16600
C472        C  0.25810143  0.69585834  0.71273500     0.24600
C473        C  0.28374042  0.67140319  0.68351378    -0.13000
C474        C  0.32540850  0.68654261  0.66950398    -0.27100
C475        C  0.34226367  0.72533369  0.68921047     0.35600
C476        C  0.31614879  0.75033854  0.71800827    -0.28700
F477        F  0.21872292  0.67904345  0.72575643    -0.20800
H478        H  0.27095516  0.63977004  0.67320114     0.14900
F479        F  0.38418176  0.73888103  0.68135411    -0.24500
H480        H  0.32927524  0.78087076  0.73109915     0.16700
C481        C  0.74553745  0.27046954  0.67629280    -0.28600
C482        C  0.73245794  0.25808144  0.71884206     0.05000
C483        C  0.69150286  0.27314203  0.73449719     0.24600
C484        C  0.66519403  0.30087021  0.70869679    -0.13100
C485        C  0.67889588  0.31479997  0.66662904    -0.27000
C486        C  0.71877837  0.29728971  0.65004570     0.35400
C487        C  0.76141156  0.22922158  0.74626090     0.05000
F488        F  0.67603090  0.25995161  0.77424114    -0.20800
H489        H  0.63346351  0.31042834  0.72167500     0.14900
F490        F  0.73203168  0.30526520  0.60819615    -0.24500
H491        H  0.77672752  0.25938092  0.66312354     0.16600
C492        C  0.78277439  0.19229156  0.72799214     0.24600
C493        C  0.81102871  0.16640467  0.75356367    -0.13000
C494        C  0.81885564  0.17628340  0.79824470    -0.27100
C495        C  0.79547053  0.21193698  0.81696358     0.35600
C496        C  0.76802095  0.23846941  0.79108998    -0.28700
F497        F  0.77527099  0.18013640  0.68565236    -0.20800
H498        H  0.82530212  0.13772425  0.73801288     0.14900
F499        F  0.79906081  0.22131498  0.86048259    -0.24500
H500        H  0.75212874  0.26660025  0.80624640     0.16700
C501        C  0.74883970  0.68864761  0.71337360    -0.28600
C502        C  0.73858932  0.73312395  0.72157820     0.05000
C503        C  0.70045257  0.75093268  0.70233046     0.24600
C504        C  0.67440203  0.72537724  0.67427663    -0.13100
C505        C  0.68546535  0.68120068  0.66443211    -0.27000
C506        C  0.72212531  0.66267324  0.68612380     0.35400
C507        C  0.76744460  0.76072723  0.75017129     0.05000
F508        F  0.68723086  0.79266402  0.71188456    -0.20800
H509        H  0.64466984  0.74039046  0.66205747     0.14900
F510        F  0.73198260  0.61924258  0.68140560    -0.24500
H511        H  0.77789794  0.67378771  0.72803156     0.16600
C512        C  0.78415613  0.74439746  0.79009073     0.24600
C513        C  0.81195195  0.77047982  0.81605065    -0.13000
C514        C  0.82399690  0.81356710  0.80304362    -0.27100
C515        C  0.80465145  0.83072055  0.76449904     0.35600
C516        C  0.77794266  0.80418268  0.73793018    -0.28700
F517        F  0.77234826  0.70380730  0.80494287    -0.20800
H518        H  0.82253601  0.75687787  0.84721210     0.14900
F519        F  0.81105730  0.87339886  0.75255728    -0.24500
H520        H  0.76533835  0.81791223  0.70741605     0.16700
loop_ 
_geom_bond_atom_site_label_1 
_geom_bond_atom_site_label_2 
_geom_bond_distance 
_geom_bond_site_symmetry_2 
_ccdc_geom_bond_type 
O1           Cu9   1.917       .  S
O1           C11   1.266       .  A
O2           Cu9   1.912       .  S
O2           C12   1.265       .  A
O3           Cu9   1.911       .  S
O3           C13   1.264       .  A
O4           Cu9   1.912       .  S
O4           C14   1.264       .  A
O5          Cu10   2.111       .  S
O5           C14   1.287       .  A
O6          Cu10   2.117       .  S
O6           C13   1.288       .  A
O7          Cu10   2.112       .  S
O7           C12   1.287       .  A
O8          Cu10   2.117       .  S
O8           C11   1.287       .  A
Cu9         Cu10   2.313       .  S
C11         C183   1.503       .  S
C12          C92   1.497       .  S
C13         C114   1.500       .  S
C14         C140   1.497       .  S
O15         Cu23   2.108       .  S
O15          C25   1.287       .  A
O16         Cu23   2.107       .  S
O16          C26   1.286       .  A
O17         Cu23   2.122       .  S
O17          C27   1.288       .  A
O18         Cu23   2.124       .  S
O18          C28   1.288       .  A
O19         Cu24   1.910       .  S
O19          C28   1.265       .  A
O20         Cu24   1.912       .  S
O20          C27   1.265       .  A
O21         Cu24   1.894       .  S
O21          C26   1.262       .  A
O22         Cu24   1.898       .  S
O22          C25   1.262       .  A
Cu23        Cu24   2.332       .  S
C25         C111   1.493       .  S
C26         C164   1.492       .  S
C27          C87   1.503       .  S
C28         C234   1.506       .  S
O29         Cu37   2.108       .  S
O29          C39   1.287       .  A
O30         Cu37   2.113       .  S
O30          C40   1.287       .  A
O31         Cu37   2.099       .  S
O31          C41   1.287       .  A
O32         Cu37   2.105       .  S
O32          C42   1.286       .  A
O33         Cu38   1.907       .  S
O33          C42   1.264       .  A
O34         Cu38   1.907       .  S
O34          C41   1.263       .  A
O35         Cu38   1.920       .  S
O35          C40   1.266       .  A
O36         Cu38   1.916       .  S
O36          C39   1.265       .  A
Cu37        Cu38   2.313       .  S
C39         C162   1.497       .  S
C40         C135   1.501       .  S
C41          C90   1.489       .  S
C42         C212   1.494       .  S
O43         Cu51   2.109       .  S
O43          C53   1.288       .  A
O44         Cu51   2.112       .  S
O44          C54   1.287       .  A
O45         Cu51   2.109       .  S
O45          C55   1.287       .  A
O46         Cu51   2.116       .  S
O46          C56   1.287       .  A
O47         Cu52   1.902       .  S
O47          C56   1.264       .  A
O48         Cu52   1.906       .  S
O48          C55   1.264       .  A
O49         Cu52   1.902       .  S
O49          C54   1.263       .  A
O50         Cu52   1.904       .  S
O50          C53   1.263       .  A
Cu51        Cu52   2.333       .  S
C53         C138   1.494       .  S
C54         C258   1.497       .  S
C55         C186   1.495       .  S
C56         C210   1.500       .  S
O57         Cu65   2.117       .  S
O57          C67   1.287       .  A
O58         Cu65   2.114       .  S
O58          C68   1.288       .  A
O59         Cu65   2.122       .  S
O59          C69   1.288       .  A
O60         Cu65   2.121       .  S
O60          C70   1.288       .  A
O61         Cu66   1.918       .  S
O61          C70   1.266       .  A
O62         Cu66   1.913       .  S
O62          C69   1.265       .  A
O63         Cu66   1.905       .  S
O63          C68   1.263       .  A
O64         Cu66   1.906       .  S
O64          C67   1.264       .  A
Cu65        Cu66   2.324       .  S
C67         C236   1.502       .  S
C68         C188   1.496       .  S
C69         C255   1.504       .  S
C70         C116   1.505       .  S
O71         Cu79   2.109       .  S
O71          C81   1.287       .  A
O72         Cu79   2.103       .  S
O72          C82   1.287       .  A
O73         Cu79   2.114       .  S
O73          C83   1.287       .  A
O74         Cu79   2.113       .  S
O74          C84   1.287       .  A
O75         Cu80   1.903       .  S
O75          C84   1.264       .  A
O76         Cu80   1.910       .  S
O76          C83   1.265       .  A
O77         Cu80   1.901       .  S
O77          C82   1.263       .  A
O78         Cu80   1.899       .  S
O78          C81   1.263       .  A
Cu79        Cu80   2.331       .  S
C81         C231   1.493       .  S
C82         C207   1.492       .  S
C83         C159   1.500       .  S
C84         C260   1.498       .  S
C85          C86   1.573       .  S
C85          C91   1.565       .  S
C85          C89   1.569       .  S
C85         C505   1.529       .  S
C86          H93   1.085       .  S
C86          C87   1.368       .  D
C87          C88   1.530       .  S
C88          C92   1.527       .  S
C88          C90   1.526       .  S
C88          H94   1.098       .  S
C89          H95   1.081       .  S
C89          C90   1.356       .  D
C91          H96   1.086       .  S
C91          C92   1.363       .  D
C97          C98   1.564       .  S
C97         C103   1.570       .  S
C97         C101   1.573       .  S
C97         C514   1.529       .  S
C98         H105   1.086       .  S
C98          C99   1.363       .  D
C99         C330   1.499       .  S
C99         C100   1.529       .  S
C100        C104   1.529       .  S
C100        C102   1.530       .  S
C100        H106   1.096       .  S
C101        H107   1.086       .  S
C101        C102   1.366       .  D
C102        C345   1.505       .  S
C103        H108   1.081       .  S
C103        C104   1.359       .  D
C104        C360   1.493       .  S
C109        C110   1.568       .  S
C109        C115   1.569       .  S
C109        C113   1.574       .  S
C109        C485   1.535       .  S
C110        H117   1.084       .  S
C110        C111   1.360       .  D
C111        C112   1.529       .  S
C112        C116   1.527       .  S
C112        C114   1.528       .  S
C112        H118   1.096       .  S
C113        H119   1.084       .  S
C113        C114   1.364       .  D
C115        H120   1.086       .  S
C115        C116   1.368       .  D
C121        C122   1.571       .  S
C121        C127   1.566       .  S
C121        C125   1.575       .  S
C121        C494   1.534       .  S
C122        H129   1.085       .  S
C122        C123   1.365       .  D
C123        C302   1.500       .  S
C123        C124   1.530       .  S
C124        C128   1.528       .  S
C124        C126   1.527       .  S
C124        H130   1.095       .  S
C125        H131   1.085       .  S
C125        C126   1.362       .  D
C126        C344   1.502       .  S
C127        H132   1.086       .  S
C127        C128   1.364       .  D
C128        C331   1.501       .  S
C133        C134   1.573       .  S
C133        C139   1.561       .  S
C133        C137   1.572       .  S
C133        C474   1.531       .  S
C134        H141   1.084       .  S
C134        C135   1.369       .  D
C135        C136   1.528       .  S
C136        C140   1.529       .  S
C136        C138   1.526       .  S
C136        H142   1.098       .  S
C137        H143   1.084       .  S
C137        C138   1.359       .  D
C139        H144   1.086       .  S
C139        C140   1.361       .  D
C145        C146   1.568       .  S
C145        C151   1.572       .  S
C145        C149   1.573       .  S
C145        C465   1.533       .  S
C146        H153   1.086       .  S
C146        C147   1.367       .  D
C147        C357   1.504       .  S
C147        C148   1.528       .  S
C148        C152   1.526       .  S
C148        C150   1.529       .  S
C148        H154   1.095       .  S
C149        H155   1.085       .  S
C149        C150   1.365       .  D
C150        C343   1.502       .  S
C151        H156   1.082       .  S
C151        C152   1.359       .  D
C152        C290   1.495       .  S
C157        C158   1.566       .  S
C157        C163   1.573       .  S
C157        C161   1.569       .  S
C157        C454   1.531       .  S
C158        H165   1.086       .  S
C158        C159   1.365       .  D
C159        C160   1.526       .  S
C160        C164   1.527       .  S
C160        C162   1.526       .  S
C160        H166   1.096       .  S
C161        H167   1.085       .  S
C161        C162   1.363       .  D
C163        H168   1.083       .  S
C163        C164   1.361       .  D
C169        C170   1.573       .  S
C169        C175   1.572       .  S
C169        C173   1.567       .  S
C169        C445   1.534       .  S
C170        H177   1.083       .  S
C170        C171   1.362       .  D
C171        C332   1.500       .  S
C171        C172   1.528       .  S
C172        C176   1.529       .  S
C172        C174   1.528       .  S
C172        H178   1.095       .  S
C173        H179   1.086       .  S
C173        C174   1.366       .  D
C174        C358   1.502       .  S
C175        H180   1.085       .  S
C175        C176   1.364       .  D
C176        C317   1.502       .  S
C181        C182   1.569       .  S
C181        C187   1.570       .  S
C181        C185   1.572       .  S
C181        C425   1.535       .  S
C182        H189   1.086       .  S
C182        C183   1.367       .  D
C183        C184   1.527       .  S
C184        C188   1.528       .  S
C184        C186   1.527       .  S
C184        H190   1.097       .  S
C185        H191   1.082       .  S
C185        C186   1.363       .  D
C187        H192   1.085       .  S
C187        C188   1.361       .  D
C193        C194   1.573       .  S
C193        C199   1.575       .  S
C193        C197   1.570       .  S
C193        C434   1.539       .  S
C194        H201   1.079       .  S
C194        C195   1.356       .  D
C195        C304   1.494       .  S
C195        C196   1.524       .  S
C196        C200   1.530       .  S
C196        C198   1.528       .  S
C196        H202   1.094       .  S
C197        H203   1.085       .  S
C197        C198   1.368       .  D
C198        C287   1.506       .  S
C199        H204   1.085       .  S
C199        C200   1.370       .  D
C200        C346   1.508       .  S
C205        C206   1.575       .  S
C205        C211   1.565       .  S
C205        C209   1.570       .  S
C205        C414   1.530       .  S
C206        H213   1.081       .  S
C206        C207   1.359       .  D
C207        C208   1.524       .  S
C208        C212   1.526       .  S
C208        C210   1.528       .  S
C208        H214   1.096       .  S
C209        H215   1.086       .  S
C209        C210   1.366       .  D
C211        H216   1.086       .  S
C211        C212   1.361       .  D
C217        C218   1.569       .  S
C217        C223   1.572       .  S
C217        C221   1.575       .  S
C217        C405   1.536       .  S
C218        H225   1.085       .  S
C218        C219   1.367       .  D
C219        C316   1.503       .  S
C219        C220   1.529       .  S
C220        C224   1.527       .  S
C220        C222   1.524       .  S
C220        H226   1.094       .  S
C221        H227   1.081       .  S
C221        C222   1.356       .  D
C222        C359   1.495       .  S
C223        H228   1.085       .  S
C223        C224   1.368       .  D
C224        C288   1.506       .  S
C229        C230   1.571       .  S
C229        C235   1.573       .  S
C229        C233   1.568       .  S
C229        C385   1.534       .  S
C230        H237   1.084       .  S
C230        C231   1.358       .  D
C231        C232   1.526       .  S
C232        C236   1.529       .  S
C232        C234   1.528       .  S
C232        H238   1.095       .  S
C233        H239   1.085       .  S
C233        C234   1.367       .  D
C235        H240   1.085       .  S
C235        C236   1.366       .  D
C241        C242   1.571       .  S
C241        C247   1.574       .  S
C241        C245   1.569       .  S
C241        C394   1.536       .  S
C242        H249   1.082       .  S
C242        C243   1.356       .  D
C243        C315   1.493       .  S
C243        C244   1.524       .  S
C244        C248   1.530       .  S
C244        C246   1.528       .  S
C244        H250   1.094       .  S
C245        H251   1.086       .  S
C245        C246   1.368       .  D
C246        C303   1.505       .  S
C247        H252   1.085       .  S
C247        C248   1.367       .  D
C248        C329   1.504       .  S
C253        C254   1.569       .  S
C253        C259   1.568       .  S
C253        C257   1.577       .  S
C253        C374   1.533       .  S
C254        H261   1.086       .  S
C254        C255   1.366       .  D
C255        C256   1.527       .  S
C256        C260   1.528       .  S
C256        C258   1.525       .  S
C256        H262   1.094       .  S
C257        H263   1.080       .  S
C257        C258   1.360       .  D
C259        H264   1.086       .  S
C259        C260   1.364       .  D
C265        C266   1.572       .  S
C265        C271   1.574       .  S
C265        C269   1.566       .  S
C265        C365   1.531       .  S
C266        H273   1.085       .  S
C266        C267   1.368       .  D
C267        C318   1.505       .  S
C267        C268   1.529       .  S
C268        C272   1.525       .  S
C268        C270   1.528       .  S
C268        H274   1.094       .  S
C269        H275   1.086       .  S
C269        C270   1.362       .  D
C270        C289   1.497       .  S
C271        H276   1.081       .  S
C271        C272   1.358       .  D
C272        C301   1.496       .  S
O277       Cu285   1.912       .  S
O277        C287   1.265       .  A
O278       Cu285   1.913   1_564  S
O278        C288   1.265       .  A
O279       Cu285   1.896   1_554  S
O279        C289   1.262       .  A
O280       Cu285   1.897   1_565  S
O280        C290   1.262       .  A
O281       Cu286   2.112   1_565  S
O281        C290   1.288       .  A
O282       Cu286   2.114   1_554  S
O282        C289   1.287       .  A
O283       Cu286   2.123   1_564  S
O283        C288   1.288       .  A
O284       Cu286   2.122       .  S
O284        C287   1.288       .  A
Cu285      Cu286   2.332       .  S
O291       Cu299   2.110   1_454  S
O291        C301   1.288       .  A
O292       Cu299   2.118       .  S
O292        C302   1.288       .  A
O293       Cu299   2.121   1_554  S
O293        C303   1.287       .  A
O294       Cu299   2.109   1_455  S
O294        C304   1.288       .  A
O295       Cu300   1.900   1_455  S
O295        C304   1.263       .  A
O296       Cu300   1.902   1_554  S
O296        C303   1.264       .  A
O297       Cu300   1.897       .  S
O297        C302   1.263       .  A
O298       Cu300   1.900   1_454  S
O298        C301   1.263       .  A
Cu299      Cu300   2.339       .  S
O305       Cu313   1.903   1_545  S
O305        C315   1.263       .  A
O306       Cu313   1.900   1_455  S
O306        C316   1.263       .  A
O307       Cu313   1.904       .  S
O307        C317   1.263       .  A
O308       Cu313   1.903   1_445  S
O308        C318   1.264       .  A
O309       Cu314   2.126   1_455  S
O309        C318   1.288       .  A
O310       Cu314   2.122   1_565  S
O310        C317   1.289       .  A
O311       Cu314   2.120   1_465  S
O311        C316   1.287       .  A
O312       Cu314   2.106       .  S
O312        C315   1.287       .  A
Cu313      Cu314   2.335   1_565  S
O319       Cu327   1.902   1_544  S
O319        C329   1.263       .  A
O320       Cu327   1.904       .  S
O320        C330   1.263       .  A
O321       Cu327   1.906   1_545  S
O321        C331   1.264       .  A
O322       Cu327   1.905   1_554  S
O322        C332   1.263       .  A
O323       Cu328   2.116   1_554  S
O323        C332   1.288       .  A
O324       Cu328   2.118   1_545  S
O324        C331   1.288       .  A
O325       Cu328   2.118       .  S
O325        C330   1.288       .  A
O326       Cu328   2.124   1_544  S
O326        C329   1.288       .  A
Cu327      Cu328   2.328       .  S
O333       Cu341   1.905       .  S
O333        C343   1.263       .  A
O334       Cu341   1.908   1_645  S
O334        C344   1.264       .  A
O335       Cu341   1.912   1_655  S
O335        C345   1.264       .  A
O336       Cu341   1.907   1_545  S
O336        C346   1.264       .  A
O337       Cu342   2.131   1_545  S
O337        C346   1.289       .  A
O338       Cu342   2.125   1_655  S
O338        C345   1.289       .  A
O339       Cu342   2.120   1_645  S
O339        C344   1.288       .  A
O340       Cu342   2.120       .  S
O340        C343   1.288       .  A
Cu341      Cu342   2.327       .  S
O347       Cu355   1.911       .  S
O347        C357   1.265       .  A
O348       Cu355   1.909   1_654  S
O348        C358   1.265       .  A
O349       Cu355   1.896   1_554  S
O349        C359   1.262       .  A
O350       Cu355   1.898   1_655  S
O350        C360   1.262       .  A
O351       Cu356   2.108   1_655  S
O351        C360   1.287       .  A
O352       Cu356   2.112   1_554  S
O352        C359   1.288       .  A
O353       Cu356   2.117   1_654  S
O353        C358   1.287       .  A
O354       Cu356   2.120       .  S
O354        C357   1.288       .  A
Cu355      Cu356   2.332       .  S
C361        C362   1.401       .  A
C361        C366   1.401       .  A
C361        H371   1.083       .  S
C362        C363   1.401       .  A
C362        C367   1.477       .  S
C363        C364   1.394       .  A
C363        F368   1.358       .  S
C364        C365   1.412       .  A
C364        H369   1.077       .  S
C365        C366   1.414       .  A
C366        F370   1.357       .  S
C367        C372   1.400       .  A
C367        C376   1.401       .  A
C372        C373   1.395       .  A
C372        F377   1.358       .  S
C373        C374   1.412       .  A
C373        H378   1.074       .  S
C374        C375   1.415       .  A
C375        C376   1.402       .  A
C375        F379   1.358       .  S
C376        H380   1.083       .  S
C381        C382   1.406       .  A
C381        C386   1.403       .  A
C381        H391   1.084       .  S
C382        C383   1.402       .  A
C382        C387   1.489       .  S
C383        C384   1.397       .  A
C383        F388   1.357       .  S
C384        C385   1.412       .  A
C384        H389   1.081       .  S
C385        C386   1.414       .  A
C386        F390   1.357       .  S
C387        C392   1.403       .  A
C387        C396   1.406       .  A
C392        C393   1.397       .  A
C392        F397   1.358       .  S
C393        C394   1.413       .  A
C393        H398   1.079       .  S
C394        C395   1.413       .  A
C395        C396   1.403       .  A
C395        F399   1.357       .  S
C396        H400   1.084       .  S
C401        C402   1.402       .  A
C401        C406   1.403       .  A
C401        H411   1.084       .  S
C402        C403   1.401       .  A
C402        C407   1.482       .  S
C403        C404   1.393       .  A
C403        F408   1.358       .  S
C404        C405   1.413       .  A
C404        H409   1.077       .  S
C405        C406   1.414       .  A
C406        F410   1.357       .  S
C407        C412   1.403       .  A
C407        C416   1.402       .  A
C412        C413   1.394       .  A
C412        F417   1.358       .  S
C413        C414   1.411       .  A
C413        H418   1.075       .  S
C414        C415   1.414       .  A
C415        C416   1.401       .  A
C415        F419   1.358       .  S
C416        H420   1.083       .  S
C421        C422   1.405       .  A
C421        C426   1.401       .  A
C421        H431   1.082       .  S
C422        C423   1.404       .  A
C422        C427   1.491       .  S
C423        C424   1.399       .  A
C423        F428   1.357       .  S
C424        C425   1.411       .  A
C424        H429   1.082       .  S
C425        C426   1.416       .  A
C426        F430   1.355       .  S
C427        C432   1.403       .  A
C427        C436   1.406       .  A
C432        C433   1.396       .  A
C432        F437   1.358       .  S
C433        C434   1.414       .  A
C433        H438   1.074       .  S
C434        C435   1.412       .  A
C435        C436   1.404       .  A
C435        F439   1.357       .  S
C436        H440   1.083       .  S
C441        C442   1.405       .  A
C441        C446   1.400       .  A
C441        H451   1.083       .  S
C442        C443   1.405       .  A
C442        C447   1.490       .  S
C443        C444   1.399       .  A
C443        F448   1.358       .  S
C444        C445   1.412       .  A
C444        H449   1.079       .  S
C445        C446   1.413       .  A
C446        F450   1.357       .  S
C447        C452   1.406       .  A
C447        C456   1.405       .  A
C452        C453   1.398       .  A
C452        F457   1.357       .  S
C453        C454   1.410       .  A
C453        H458   1.080       .  S
C454        C455   1.413       .  A
C455        C456   1.400       .  A
C455        F459   1.357       .  S
C456        H460   1.084       .  S
C461        C462   1.405       .  A
C461        C466   1.398       .  A
C461        H471   1.085       .  S
C462        C463   1.405       .  A
C462        C467   1.491       .  S
C463        C464   1.400       .  A
C463        F468   1.358       .  S
C464        C465   1.413       .  A
C464        H469   1.077       .  S
C465        C466   1.411       .  A
C466        F470   1.357       .  S
C467        C472   1.404       .  A
C467        C476   1.407       .  A
C472        C473   1.395       .  A
C472        F477   1.357       .  S
C473        C474   1.410       .  A
C473        H478   1.079       .  S
C474        C475   1.413       .  A
C475        C476   1.404       .  A
C475        F479   1.357       .  S
C476        H480   1.081       .  S
C481        C482   1.405       .  A
C481        C486   1.400       .  A
C481        H491   1.082       .  S
C482        C483   1.408       .  A
C482        C487   1.495       .  S
C483        C484   1.400       .  A
C483        F488   1.357       .  S
C484        C485   1.410       .  A
C484        H489   1.081       .  S
C485        C486   1.415       .  A
C486        F490   1.357       .  S
C487        C492   1.408       .  A
C487        C496   1.405       .  A
C492        C493   1.399       .  A
C492        F497   1.358       .  S
C493        C494   1.411       .  A
C493        H498   1.080       .  S
C494        C495   1.413       .  A
C495        C496   1.401       .  A
C495        F499   1.357       .  S
C496        H500   1.082       .  S
C501        C502   1.405       .  A
C501        C506   1.399       .  A
C501        H511   1.086       .  S
C502        C503   1.405       .  A
C502        C507   1.488       .  S
C503        C504   1.395       .  A
C503        F508   1.358       .  S
C504        C505   1.412       .  A
C504        H509   1.077       .  S
C505        C506   1.410       .  A
C506        F510   1.357       .  S
C507        C512   1.406       .  A
C507        C516   1.404       .  A
C512        C513   1.398       .  A
C512        F517   1.358       .  S
C513        C514   1.412       .  A
C513        H518   1.082       .  S
C514        C515   1.411       .  A
C515        C516   1.397       .  A
C515        F519   1.357       .  S
C516        H520   1.087       .  S
