geometry optimzed in LAMMPS
_audit_creation_date              2020-12-01 
_audit_creation_method            'lammps2cif' 
_symmetry_space_group_name_H-M    'P1' 
_symmetry_Int_Tables_number       1 
_symmetry_cell_setting            triclinic 
loop_ 
_symmetry_equiv_pos_as_xyz 
  x,y,z 
_cell_length_a                    68.6982955 
_cell_length_b                    68.99506802991634 
_cell_length_c                    48.063334185496196 
_cell_angle_alpha                 89.58837962906699 
_cell_angle_beta                  90.4243200508111 
_cell_angle_gamma                 126.42804948103576 
loop_ 
_atom_site_label 
_atom_site_type_symbol 
_atom_site_fract_x 
_atom_site_fract_y 
_atom_site_fract_z 
_atom_site_charge 
C1          C  0.54109890  0.85640516  0.99419570     0.03200
C2          C  0.53953172  0.86550801  0.46862448    -0.12900
C3          C  0.53937894  0.88579583  0.46811673     0.00700
C4          C  0.54087519  0.89677345  0.49319062    -0.11500
C5          C  0.54394795  0.88873491  0.01838700     0.03200
C6          C  0.54388129  0.86848942  0.01892386    -0.10900
H7          H  0.53868795  0.85701804  0.44932189     0.08800
H8          H  0.54049671  0.91228109  0.49302760     0.06300
H9          H  0.54639132  0.86236931  0.03854619     0.06200
C10         C  0.33863692  0.93924345  0.99044551     0.03200
C11         C  0.35027244  0.94668453  0.46455344    -0.12900
C12         C  0.37544067  0.96267737  0.46320212     0.00700
C13         C  0.38908296  0.97226376  0.98759111    -0.11500
C14         C  0.37777908  0.96522034  0.01354885     0.03200
C15         C  0.35251280  0.94857221  0.01498399    -0.10900
H16         H  0.33987799  0.93888699  0.44554356     0.08800
H17         H  0.40865321  0.98434595  0.98638995     0.06300
H18         H  0.34385983  0.94189239  0.03509405     0.06200
N19         N  0.61476821  0.08301576  0.27892571    -0.06000
N20         N  0.62890401  0.09515776  0.30046648    -0.58100
N21         N  0.61451541  0.06637246  0.21384720    -0.05700
N22         N  0.62853862  0.06702166  0.19465869    -0.60300
N23         N  0.61783806  0.08720013  0.21502735    -0.05300
N24         N  0.63394864  0.10236347  0.19645866    -0.58100
N25         N  0.61103580  0.06202481  0.27714730    -0.05000
N26         N  0.62248462  0.05943734  0.29720175    -0.60600
C27         C  0.63360851  0.08019374  0.31154449     0.96100
C28         C  0.64046911  0.08953647  0.18401200     0.95900
N29         N  0.54498564  0.00106510  0.20816128    -0.06200
N30         N  0.53548961  0.98566149  0.18737475    -0.58700
N31         N  0.56551531  0.00825545  0.27286483    -0.04300
N32         N  0.57077484  0.99900036  0.29306495    -0.60000
N33         N  0.54204757  0.99738173  0.27167817    -0.06200
N34         N  0.53084510  0.98058245  0.29107586    -0.59000
N35         N  0.56849879  0.01225326  0.20933968    -0.04000
N36         N  0.57549434  0.00469302  0.18938757    -0.60100
Mn37       Mn  0.59033658  0.03700947  0.24321742     1.18400
C38         C  0.55474366  0.98827707  0.17567201     0.98200
C39         C  0.54899798  0.98190988  0.30438494     0.98900
N40         N  0.58387401  0.10377099  0.21457787    -0.06300
N41         N  0.59454106  0.12043918  0.19487659    -0.62600
N42         N  0.55743896  0.08867735  0.27674904    -0.05100
N43         N  0.55005985  0.09624590  0.29622535    -0.63200
N44         N  0.58101970  0.10024081  0.27813844    -0.05800
N45         N  0.59026907  0.11618344  0.29845169    -0.62800
N46         N  0.56026767  0.09206011  0.21323745    -0.04700
N47         N  0.55430834  0.10026096  0.19261558    -0.63500
Mn48       Mn  0.60008555  0.09437125  0.24680229     1.10700
C49         C  0.57577786  0.11797209  0.18143835     0.99500
C50         C  0.57068124  0.11334600  0.30952804     0.99500
N51         N  0.50824214  0.01385304  0.27116552    -0.05800
N52         N  0.49179802  0.99877156  0.28946775    -0.61100
N53         N  0.51463626  0.03834960  0.20903923    -0.05100
N54         N  0.50198328  0.03987506  0.18953384    -0.57900
N55         N  0.51096033  0.01737601  0.20797215    -0.06400
N56         N  0.49564486  0.00411291  0.18781597    -0.60700
N57         N  0.51203985  0.03487132  0.27242789    -0.05400
N58         N  0.49837645  0.03464264  0.29168526    -0.57900
Mn59       Mn  0.52602452  0.00671911  0.23967345     1.20200
Mn60       Mn  0.53577241  0.06372730  0.24288473     1.10100
Cl61       Cl  0.56307785  0.05047789  0.24313889    -0.85900
C62         C  0.48582301  0.01201986  0.30203239     0.96500
C63         C  0.49019851  0.01836313  0.17654126     0.96300
C64         C  0.54769920  0.22062916  0.49448145     0.03200
C65         C  0.55033596  0.21293047  0.46875236    -0.12900
C66         C  0.55789338  0.19801550  0.46774296     0.00700
C67         C  0.56294656  0.19108147  0.49264113    -0.11500
C68         C  0.56170835  0.19973449  0.01832462     0.03200
C69         C  0.55380948  0.21437611  0.01915964    -0.10900
H70         H  0.54657752  0.21861374  0.44966093     0.08800
H71         H  0.56783976  0.17877975  0.49198880     0.06300
H72         H  0.55213351  0.22066196  0.03893849     0.06200
C73         C  0.78838419  0.16698434  0.99436473     0.03200
C74         C  0.77666208  0.15961103  0.02026741    -0.12900
C75         C  0.75194485  0.14064110  0.02210295     0.00700
C76         C  0.73866593  0.12965544  0.99768175    -0.11500
C77         C  0.74988019  0.13707968  0.47163011     0.03200
C78         C  0.77492491  0.15505209  0.47015902    -0.10900
H79         H  0.78642280  0.16946436  0.03893056     0.08800
H80         H  0.71920393  0.11632024  0.99885293     0.06300
H81         H  0.78361522  0.16084836  0.45001509     0.06200
N82         N  0.99225536  0.54729155  0.28303337    -0.06000
N83         N  0.97562817  0.53810156  0.30268687    -0.58100
N84         N  0.00498063  0.57021361  0.21867252    -0.05700
N85         N  0.99667686  0.57688572  0.19887689    -0.60300
N86         N  0.99262982  0.54662490  0.21929971    -0.05300
N87         N  0.97560483  0.53675758  0.19995893    -0.58100
N88         N  0.00450088  0.57085823  0.28222256    -0.05000
N89         N  0.99653440  0.57820987  0.30120231    -0.60600
C90         C  0.97847965  0.55765933  0.31372869     0.96100
C91         C  0.97832592  0.55584622  0.18740438     0.95900
N92         N  0.08098380  0.61722185  0.22052119    -0.06200
N93         N  0.09585249  0.63275429  0.20132976    -0.58700
N94         N  0.05930429  0.61466888  0.28296132    -0.04300
N95         N  0.05872205  0.62767144  0.30244058    -0.60000
N96         N  0.07982658  0.61720309  0.28404644    -0.06200
N97         N  0.09363002  0.63199476  0.30428482    -0.59000
N98         N  0.06018180  0.61416577  0.21937079    -0.04000
N99         N  0.06033520  0.62734871  0.19927573    -0.60100
Mn100      Mn  0.03210155  0.59289101  0.25069868     1.18400
C101        C  0.08265368  0.63881476  0.18827412     0.98200
C102        C  0.08015735  0.63825553  0.31574541     0.98900
N103        N  0.00746470  0.51121541  0.22118958    -0.06300
N104        N  0.99367498  0.49641506  0.20091104    -0.62600
N105        N  0.02737704  0.51437888  0.28569039    -0.05100
N106        N  0.02747934  0.50167562  0.30623524    -0.63200
N107        N  0.00676149  0.51167925  0.28497570    -0.05800
N108        N  0.99237277  0.49701391  0.30501018    -0.62800
N109        N  0.02815747  0.51406171  0.22197878    -0.04700
N110        N  0.02893456  0.50136107  0.20227177    -0.63500
Mn111      Mn  0.99900406  0.52853968  0.25212489     1.10700
C112        C  0.00743474  0.49062450  0.18912445     0.99500
C113        C  0.00550512  0.49086746  0.31806444     0.99500
N114        N  0.09445628  0.58163125  0.28617363    -0.05800
N115        N  0.11105974  0.59116731  0.30603119    -0.61100
N116        N  0.08311442  0.55784804  0.22293351    -0.05100
N117        N  0.09147377  0.55070917  0.20420374    -0.57900
N118        N  0.09535999  0.58142422  0.22240940    -0.06400
N119        N  0.11230741  0.59083206  0.20313789    -0.60700
N120        N  0.08231766  0.55806191  0.28607674    -0.05400
N121        N  0.09043854  0.55104044  0.30559585    -0.57900
Mn122      Mn  0.08841208  0.60000092  0.25331409     1.20200
Mn123      Mn  0.05534319  0.53564592  0.25418049     1.10100
Cl124      Cl  0.04371811  0.56427763  0.25254434    -0.85900
C125        C  0.10813282  0.57178846  0.31804726     0.96500
C126        C  0.10951176  0.57139972  0.19184524     0.96300
C127        C  0.21313116  0.54578134  0.50491999     0.03200
C128        C  0.20540101  0.54959411  0.47965318    -0.12900
C129        C  0.18969740  0.55623246  0.47970607     0.00700
C130        C  0.18209870  0.55956121  0.50490077    -0.11500
C131        C  0.18992196  0.55621236  0.03017156     0.03200
C132        C  0.20554659  0.54942714  0.03018410    -0.10900
H133        H  0.21097251  0.54670895  0.46007404     0.08800
H134        H  0.16984420  0.56462403  0.50481738     0.06300
H135        H  0.21155518  0.54674003  0.04979083     0.06200
C136        C  0.93175900  0.33890363  0.00381303     0.03200
C137        C  0.93971890  0.35225237  0.47889581    -0.12900
C138        C  0.95500073  0.37747857  0.47958486     0.00700
C139        C  0.96252377  0.38928023  0.00518773    -0.11500
C140        C  0.95416183  0.37631066  0.03014361     0.03200
C141        C  0.93884110  0.35106610  0.02944500    -0.10900
H142        H  0.93300516  0.34306996  0.45908401     0.08800
H143        H  0.97402646  0.40881814  0.00566832     0.06300
H144        H  0.93165355  0.34093835  0.04868285     0.06200
C145        C  0.85161049  0.55136640  0.49959992     0.03200
C146        C  0.86268318  0.55257156  0.47447285    -0.12900
C147        C  0.88309883  0.55254455  0.47469928     0.00700
C148        C  0.89272972  0.55189723  0.50014387    -0.11500
C149        C  0.88211458  0.55094567  0.02536881     0.03200
C150        C  0.86136503  0.55040696  0.02497709    -0.10900
H151        H  0.85571187  0.55396888  0.45483523     0.08800
H152        H  0.90872437  0.55227267  0.50028908     0.06300
H153        H  0.85277261  0.54921509  0.04438294     0.06200
C154        C  0.16927257  0.78841399  0.00185346     0.03200
C155        C  0.15990661  0.77470274  0.47736727    -0.12900
C156        C  0.13962205  0.75049083  0.47839540     0.00700
C157        C  0.12826717  0.74030197  0.00393643    -0.11500
C158        C  0.13827286  0.75338996  0.02853570     0.03200
C159        C  0.15834909  0.77756299  0.02744644    -0.10900
H160        H  0.16929232  0.78236085  0.45786928     0.08800
H161        H  0.11291759  0.72147794  0.00499832     0.06300
H162        H  0.16649013  0.78735988  0.04666302     0.06200
N163        N  0.48073098  0.45742668  0.22183632    -0.06000
N164        N  0.46999440  0.44160812  0.20145914    -0.58100
N165        N  0.50147657  0.46601704  0.28705063    -0.05700
N166        N  0.50573897  0.45652874  0.30792197    -0.60300
N167        N  0.47834723  0.45674790  0.28570483    -0.05300
N168        N  0.46633238  0.44054040  0.30561579    -0.58100
N169        N  0.50374133  0.46629866  0.22333454    -0.05000
N170        N  0.50910631  0.45665088  0.20407613    -0.60600
C171        C  0.48793808  0.44141943  0.19040498     0.96100
C172        C  0.48376631  0.44086699  0.31948921     0.95900
N173        N  0.55660599  0.53984969  0.28865072    -0.06200
N174        N  0.57199475  0.55261108  0.30901915    -0.58700
N175        N  0.55282299  0.51834095  0.22526416    -0.04300
N176        N  0.56469588  0.51556512  0.20626996    -0.60000
N177        N  0.55938802  0.54054472  0.22496488    -0.06200
N178        N  0.57605888  0.55342525  0.20576093    -0.59000
N179        N  0.55056114  0.51784674  0.28874192    -0.04000
N180        N  0.56180694  0.51519383  0.30904636    -0.60100
Mn181      Mn  0.52744486  0.49184309  0.25611561     1.18400
C182        C  0.57487650  0.53690305  0.32169979     0.98200
C183        C  0.57894454  0.53746546  0.19410568     0.98900
N184        N  0.44923249  0.47910043  0.28247432    -0.06300
N185        N  0.43204659  0.46596868  0.30107472    -0.62600
N186        N  0.45820569  0.50197927  0.21864041    -0.05100
N187        N  0.44710535  0.50476048  0.19826436    -0.63200
N188        N  0.45202324  0.47989612  0.21877551    -0.05800
N189        N  0.43664538  0.46719905  0.19834392    -0.62800
N190        N  0.45545733  0.50118577  0.28190067    -0.04700
N191        N  0.44262456  0.50352017  0.29991705    -0.63500
Mn192      Mn  0.46441503  0.46754793  0.25221039     1.10700
C193        C  0.42804281  0.48145647  0.31164173     0.99500
C194        C  0.43402189  0.48307579  0.18566116     0.99500
N195        N  0.53054331  0.56298980  0.22212958    -0.05800
N196        N  0.54296022  0.57926896  0.20247280    -0.61100
N197        N  0.50494116  0.55330349  0.28448268    -0.05100
N198        N  0.49982416  0.56300791  0.30401438    -0.57900
N199        N  0.52798003  0.56218188  0.28557713    -0.06400
N200        N  0.53903933  0.57815194  0.30570038    -0.60700
N201        N  0.50750970  0.55405274  0.22055786    -0.05400
N202        N  0.50372941  0.56393393  0.19964051    -0.57900
Mn203      Mn  0.54423976  0.55207379  0.25532965     1.20200
Mn204      Mn  0.48120515  0.52793690  0.25138326     1.10100
Cl205      Cl  0.50429945  0.50984144  0.25375210    -0.85900
C206        C  0.52594600  0.57944714  0.18844012     0.96500
C207        C  0.52132131  0.57853041  0.31697154     0.96300
C208        C  0.48102571  0.31665573  0.50368925     0.03200
C209        C  0.48120475  0.32720946  0.02868466    -0.12900
C210        C  0.47512991  0.34331603  0.02875038     0.00700
C211        C  0.46913261  0.34915119  0.00375696    -0.11500
C212        C  0.46889565  0.33886399  0.47860534     0.03200
C213        C  0.47447652  0.32232132  0.47881475    -0.10900
H214        H  0.48738162  0.32402739  0.04779097     0.08800
H215        H  0.46602445  0.36281347  0.00377450     0.06300
H216        H  0.47477605  0.31465948  0.45934954     0.06200
C217        C  0.31299225  0.48309329  0.00009197     0.03200
C218        C  0.31936989  0.47868712  0.02592312    -0.12900
C219        C  0.33276440  0.46940087  0.02720777     0.00700
C220        C  0.33988028  0.46458600  0.00261459    -0.11500
C221        C  0.33418749  0.46944545  0.47672036     0.03200
C222        C  0.32066807  0.47865945  0.47548787    -0.10900
H223        H  0.31435634  0.48294230  0.04501982     0.08800
H224        H  0.35115455  0.45839838  0.00365013     0.06300
H225        H  0.31699257  0.48330054  0.45551989     0.06200
C226        C  0.71266393  0.56356785  0.00592054     0.03200
C227        C  0.70484869  0.56599673  0.03176017    -0.12900
C228        C  0.68518887  0.56720727  0.03325015     0.00700
C229        C  0.67352832  0.56615140  0.00864561    -0.11500
C230        C  0.68123251  0.56386232  0.48279076     0.03200
C231        C  0.70105246  0.56299160  0.48144323    -0.10900
H232        H  0.71377709  0.56653404  0.05070374     0.08800
H233        H  0.65773757  0.56611900  0.00965732     0.06300
H234        H  0.70672645  0.56077798  0.46149417     0.06200
C235        C  0.54514756  0.71336714  0.00363412     0.03200
C236        C  0.54762499  0.70451662  0.02877069    -0.12900
C237        C  0.54743752  0.68408337  0.02892066     0.00700
C238        C  0.54573790  0.67312538  0.00372864    -0.11500
C239        C  0.54364175  0.68194506  0.47848333     0.03200
C240        C  0.54339707  0.70213652  0.47844580    -0.10900
H241        H  0.54908523  0.71314548  0.04822253     0.08800
H242        H  0.54535809  0.65720141  0.00380754     0.06300
H243        H  0.54191162  0.70912343  0.45888749     0.06200
C244        C  0.34546064  0.46809974  0.45152631    -0.11900
C245        C  0.33172118  0.45302418  0.42895380     0.03600
C246        C  0.34349246  0.45259148  0.40556169    -0.12400
C247        C  0.36883102  0.46694453  0.40451190     0.18500
C248        C  0.38252034  0.48197510  0.42705119    -0.09500
C249        C  0.37080933  0.48235495  0.45036018    -0.02400
H250        H  0.33291682  0.44111471  0.38816141     0.05000
C251        C  0.38098725  0.46748149  0.37913864     0.20400
H252        H  0.38153837  0.49413085  0.46751276     0.10200
C253        C  0.38352876  0.48204530  0.35696548    -0.15800
C254        C  0.39796938  0.48602235  0.33417693     0.03200
C255        C  0.41022589  0.47530415  0.33346980    -0.11100
C256        C  0.40634758  0.45943913  0.35490423    -0.01100
C257        C  0.39192815  0.45557875  0.37776017    -0.06300
H258        H  0.37483173  0.49095860  0.35781710     0.06200
H259        H  0.41537927  0.45085568  0.35449678     0.09600
Br260      Br  0.41724907  0.50301133  0.42641129    -0.06000
Br261      Br  0.29704978  0.43213951  0.42956635    -0.02900
Br262      Br  0.39959802  0.50576390  0.30454700    -0.00100
Br263      Br  0.38839674  0.43476081  0.40714670    -0.04500
C264        C  0.34301981  0.46854103  0.05373738    -0.11900
C265        C  0.33818682  0.44694012  0.06410901     0.03600
C266        C  0.35162009  0.44763080  0.08659543    -0.12400
C267        C  0.36980671  0.46965817  0.09882355     0.18500
C268        C  0.37396625  0.49110453  0.08914952    -0.09500
C269        C  0.36051500  0.49040313  0.06680457    -0.02400
H270        H  0.34816746  0.43103919  0.09427994     0.05000
C271        C  0.38479349  0.47025882  0.12125159     0.20400
H272        H  0.36450134  0.50713189  0.05875326     0.10200
C273        C  0.40639625  0.47353789  0.11445538    -0.15800
C274        C  0.42233984  0.47683618  0.13538920     0.03200
C275        C  0.41661643  0.47685648  0.16338592    -0.11100
C276        C  0.39470501  0.47289125  0.17018338    -0.01100
C277        C  0.37872462  0.46948907  0.14928548    -0.06300
H278        H  0.41117422  0.47429493  0.09287462     0.06200
H279        H  0.39030736  0.47300341  0.19172401     0.09600
Br280      Br  0.39856047  0.52182897  0.10503952    -0.06000
Br281      Br  0.31347806  0.41627836  0.04821984    -0.02900
Br282      Br  0.45232717  0.48276765  0.12490131    -0.00100
Br283      Br  0.34930993  0.46483923  0.15969950    -0.04500
C284        C  0.54157344  0.66950801  0.45251839    -0.11900
C285        C  0.52043839  0.65745317  0.43606727     0.03600
C286        C  0.51817529  0.64367916  0.41341388    -0.12400
C287        C  0.53615502  0.64060047  0.40754766     0.18500
C288        C  0.55743921  0.65284569  0.42386282    -0.09500
C289        C  0.56004410  0.66730036  0.44594259    -0.02400
H290        H  0.50183393  0.63453429  0.40090994     0.05000
C291        C  0.53216429  0.62437582  0.38457565     0.20400
H292        H  0.57620366  0.67615683  0.45875571     0.10200
C293        C  0.54877427  0.63360372  0.36262865    -0.15800
C294        C  0.54573152  0.61890252  0.34063704     0.03200
C295        C  0.52522139  0.59462022  0.33981336    -0.11100
C296        C  0.50823531  0.58549803  0.36134128    -0.01100
C297        C  0.51174023  0.59999887  0.38387112    -0.06300
H298        H  0.56421615  0.65239068  0.36259933     0.06200
H299        H  0.49255306  0.56682352  0.36105059     0.09600
Br300      Br  0.58268480  0.64906650  0.41847299    -0.06000
Br301      Br  0.49293239  0.65666218  0.44534129    -0.02900
Br302      Br  0.56963498  0.63346848  0.31176130    -0.00100
Br303      Br  0.48879102  0.58514890  0.41374916    -0.04500
C304        C  0.54790391  0.67310429  0.05515168    -0.11900
C305        C  0.52958636  0.66433716  0.07524850     0.03600
C306        C  0.52863821  0.65096707  0.09782700    -0.12400
C307        C  0.54537178  0.64569263  0.10051471     0.18500
C308        C  0.56380641  0.65459000  0.08062382    -0.09500
C309        C  0.56512809  0.66845504  0.05836863    -0.02400
H310        H  0.51409813  0.64370789  0.11276615     0.05000
C311        C  0.54152090  0.62880791  0.12257338     0.20400
H312        H  0.57900190  0.67470830  0.04275103     0.10200
C313        C  0.52087069  0.60484569  0.12105564    -0.15800
C314        C  0.51559995  0.58838804  0.14213611     0.03200
C315        C  0.53130441  0.59586845  0.16516914    -0.11100
C316        C  0.55225132  0.61974591  0.16640814    -0.01100
C317        C  0.55727873  0.63631087  0.14550006    -0.06300
H318        H  0.50871187  0.59896847  0.10339056     0.06200
H319        H  0.56432169  0.62575619  0.18417478     0.09600
Br320      Br  0.58603526  0.64636023  0.08137054    -0.06000
Br321      Br  0.50371661  0.66744832  0.07129862    -0.02900
Br322      Br  0.48731607  0.55578890  0.13767971    -0.00100
Br323      Br  0.58492675  0.66919135  0.14996253    -0.04500
C324        C  0.59252225  0.54333583  0.34400789    -0.11900
C325        C  0.59646995  0.55856863  0.36620487     0.03600
C326        C  0.61306257  0.56349126  0.38718092    -0.12400
C327        C  0.62584214  0.55350998  0.38625879     0.18500
C328        C  0.62221958  0.53869244  0.36390838    -0.09500
C329        C  0.60560800  0.53365504  0.34305397    -0.02400
H330        H  0.61546375  0.57450670  0.40469922     0.05000
C331        C  0.64069760  0.55640030  0.41030782     0.20400
H332        H  0.60288568  0.52207803  0.32603182     0.10200
C333        C  0.62970960  0.53904869  0.43146274    -0.15800
C334        C  0.64288917  0.54092188  0.45480122     0.03200
C335        C  0.66740610  0.56072622  0.45745905    -0.11100
C336        C  0.67861243  0.57779472  0.43588421    -0.01100
C337        C  0.66541179  0.57567869  0.41227397    -0.06300
H338        H  0.61080850  0.52384334  0.42964694     0.06200
H339        H  0.69756722  0.59289734  0.43757015     0.09600
Br340      Br  0.63914488  0.52450494  0.36147213    -0.06000
Br341      Br  0.57824423  0.57129046  0.37032079    -0.02900
Br342      Br  0.62691289  0.51527327  0.48168374    -0.00100
Br343      Br  0.68168185  0.59913455  0.38309914    -0.04500
C344        C  0.59624920  0.54327119  0.17179817    -0.11900
C345        C  0.59005163  0.52693494  0.15001911     0.03600
C346        C  0.60711169  0.53256428  0.12971519    -0.12400
C347        C  0.63067023  0.55398934  0.13100659     0.18500
C348        C  0.63695901  0.57027702  0.15286696    -0.09500
C349        C  0.61966563  0.56496896  0.17284877    -0.02400
H350        H  0.60192232  0.52014256  0.11265280     0.05000
C351        C  0.64776112  0.55930602  0.10842479     0.20400
H352        H  0.62475265  0.57749784  0.18975409     0.10200
C353        C  0.65608035  0.57909206  0.09084426    -0.15800
C354        C  0.66960613  0.58287085  0.06711932     0.03200
C355        C  0.67471502  0.56644404  0.06041588    -0.11100
C356        C  0.66741232  0.54734139  0.07875705    -0.01100
C357        C  0.65405305  0.54367821  0.10258700    -0.06300
H358        H  0.65140288  0.59127918  0.09515231     0.06200
H359        H  0.67124792  0.53457788  0.07391785     0.09600
Br360      Br  0.66919085  0.59924511  0.15712427    -0.06000
Br361      Br  0.55827604  0.49717066  0.14606528    -0.02900
Br362      Br  0.68077428  0.61079785  0.04474513    -0.00100
Br363      Br  0.64451865  0.51686493  0.12624089    -0.04500
C364        C  0.46687533  0.34850903  0.45195078    -0.11900
C365        C  0.44858270  0.35161231  0.44711980     0.03600
C366        C  0.44998441  0.36475743  0.42392950    -0.12400
C367        C  0.46913006  0.37449553  0.40502082     0.18500
C368        C  0.48637342  0.36987613  0.40870001    -0.09500
C369        C  0.48523172  0.35710900  0.43207644    -0.02400
H370        H  0.43648588  0.36795236  0.42104565     0.05000
C371        C  0.47212847  0.39124198  0.38318323     0.20400
H372        H  0.49933860  0.35480711  0.43529840     0.10200
C373        C  0.49208253  0.41553282  0.38481888    -0.15800
C374        C  0.49589761  0.43209875  0.36463363     0.03200
C375        C  0.47927087  0.42447059  0.34249475    -0.11100
C376        C  0.45887282  0.40030826  0.34134045    -0.01100
C377        C  0.45534222  0.38364376  0.36132176    -0.06300
H378        H  0.50484063  0.42160869  0.40190638     0.06200
H379        H  0.44613027  0.39415274  0.32422810     0.09600
Br380      Br  0.51199819  0.38092553  0.38254799    -0.06000
Br381      Br  0.42116858  0.33806133  0.47119719    -0.02900
Br382      Br  0.52364377  0.46500119  0.36908135    -0.00100
Br383      Br  0.42830659  0.35051101  0.35694046    -0.04500
C384        C  0.48467168  0.42518967  0.16789215    -0.11900
C385        C  0.46662278  0.41645753  0.14711858     0.03600
C386        C  0.46482407  0.40155512  0.12607576    -0.12400
C387        C  0.48042961  0.39480237  0.12554050     0.18500
C388        C  0.49790680  0.40284130  0.14658749    -0.09500
C389        C  0.50009935  0.41811436  0.16733306    -0.02400
H390        H  0.45142018  0.39549904  0.10972271     0.05000
C391        C  0.47939917  0.38087621  0.10173263     0.20400
H392        H  0.51378016  0.42423131  0.18334672     0.10200
C393        C  0.49689459  0.39305211  0.08086745    -0.15800
C394        C  0.49597469  0.38087903  0.05725420     0.03200
C395        C  0.47738503  0.35608877  0.05437192    -0.11100
C396        C  0.46017691  0.34373238  0.07554515    -0.01100
C397        C  0.46098461  0.35602365  0.09910496    -0.06300
H398        H  0.51112125  0.41216853  0.08282332     0.06200
H399        H  0.44582503  0.32467014  0.07342504     0.09600
Br400      Br  0.51865291  0.39282961  0.14810698    -0.06000
Br401      Br  0.44469875  0.42503561  0.14515315    -0.02900
Br402      Br  0.52055500  0.39880128  0.02952797    -0.00100
Br403      Br  0.43668219  0.33838314  0.12711428    -0.04500
C404        C  0.73260893  0.56109680  0.00434482    -0.11900
C405        C  0.73175446  0.54274630  0.01888374     0.03600
C406        C  0.75118965  0.54131774  0.01719217    -0.12400
C407        C  0.77141874  0.55769954  0.00085718     0.18500
C408        C  0.77182326  0.57530527  0.48534645    -0.09500
C409        C  0.75258347  0.57699734  0.48731511    -0.02400
H410        H  0.75053420  0.52735068  0.02865335     0.05000
C411        C  0.79199955  0.55624321  0.00045833     0.20400
H412        H  0.75324676  0.59084802  0.47556791     0.10200
C413        C  0.79007344  0.53790246  0.48531163    -0.15800
C414        C  0.80916538  0.53587123  0.48486787     0.03200
C415        C  0.83073832  0.55253838  0.49963101    -0.11100
C416        C  0.83241170  0.57067578  0.01512335    -0.01100
C417        C  0.81323137  0.57253994  0.01572419    -0.06300
H418        H  0.77355222  0.52499132  0.47400876     0.06200
H419        H  0.84874106  0.58347082  0.02679845     0.09600
Br420      Br  0.79800830  0.59697381  0.46076380    -0.06000
Br421      Br  0.70393396  0.51824740  0.03981233    -0.02900
Br422      Br  0.80399028  0.50899530  0.46547109    -0.00100
Br423      Br  0.81643601  0.59711122  0.03832253    -0.04500
C424        C  0.29969297  0.49381542  0.99907007    -0.11900
C425        C  0.27719243  0.48220879  0.48539637     0.03600
C426        C  0.26471976  0.49244834  0.48580484    -0.12400
C427        C  0.27416513  0.51406356  0.99996456     0.18500
C428        C  0.29653554  0.52558620  0.01386968    -0.09500
C429        C  0.30919927  0.51553691  0.01313296    -0.02400
H430        H  0.24725104  0.48319497  0.47563055     0.05000
C431        C  0.25934247  0.52304821  0.50179898     0.20400
H432        H  0.32634110  0.52447537  0.02400680     0.10200
C433        C  0.23773567  0.50953020  0.01692883    -0.15800
C434        C  0.22253223  0.51667291  0.01839989     0.03200
C435        C  0.22901312  0.53789379  0.50467571    -0.11100
C436        C  0.25064893  0.55137270  0.48944633    -0.01100
C437        C  0.26573566  0.54406657  0.48781114    -0.06300
H438        H  0.23249857  0.49308695  0.02732426     0.06200
H439        H  0.25572105  0.56756602  0.47855705     0.09600
Br440      Br  0.30967065  0.55408290  0.03564840    -0.06000
Br441      Br  0.26166292  0.45134349  0.46806843    -0.02900
Br442      Br  0.19238841  0.49569393  0.03763858    -0.00100
Br443      Br  0.29419016  0.56268085  0.46519511    -0.04500
C444        C  0.89300246  0.55024248  0.05174682    -0.11900
C445        C  0.90087238  0.56758687  0.07285465     0.03600
C446        C  0.91364078  0.56778548  0.09583239    -0.12400
C447        C  0.91911428  0.55120723  0.09796088     0.18500
C448        C  0.91078616  0.53356925  0.07726909    -0.09500
C449        C  0.89775886  0.53312825  0.05454619    -0.02400
H450        H  0.92000594  0.58141423  0.11171180     0.05000
C451        C  0.93415424  0.55294339  0.12135683     0.20400
H452        H  0.89191677  0.51975127  0.03846776     0.10200
C453        C  0.92387858  0.53436423  0.14115414    -0.15800
C454        C  0.93783548  0.53482632  0.16284213     0.03200
C455        C  0.96264688  0.55423660  0.16491871    -0.11100
C456        C  0.97271394  0.57311139  0.14544602    -0.01100
C457        C  0.95873622  0.57257364  0.12375969    -0.12000
H458        H  0.90491165  0.51944797  0.13968572     0.06200
H459        H  0.99163342  0.58818475  0.14682482     0.09600
Br460      Br  0.91821577  0.51077848  0.07806417    -0.06000
Br461      Br  0.89679035  0.59276020  0.07029867    -0.02900
Br462      Br  0.92139641  0.50920296  0.18971753    -0.00100
Br463      Br  0.97431578  0.59862725  0.09739370    -0.04500
C464        C  0.89534577  0.55404618  0.44873689    -0.11900
C465        C  0.88387904  0.53556551  0.42869376     0.03600
C466        C  0.89710798  0.53632437  0.40619645    -0.12400
C467        C  0.92177366  0.55518460  0.40342139     0.18500
C468        C  0.93308695  0.57402818  0.42295320    -0.09500
C469        C  0.91987717  0.57328902  0.44541528    -0.02400
H470        H  0.88826646  0.52188777  0.39110548     0.05000
C471        C  0.93545771  0.55496881  0.38005800     0.20400
H472        H  0.92892148  0.58752628  0.46074954     0.10200
C473        C  0.94428275  0.57264238  0.35935704    -0.15800
C474        C  0.95808719  0.57370075  0.33742979     0.03200
C475        C  0.96321536  0.55669105  0.33593526    -0.11100
C476        C  0.95368178  0.53849849  0.35622579    -0.01100
C477        C  0.93995729  0.53757958  0.37825516    -0.06300
H478        H  0.94043053  0.58571505  0.36033561     0.06200
H479        H  0.95737328  0.52530207  0.35532473     0.09600
Br480      Br  0.96679019  0.60050697  0.42064054    -0.06000
Br481      Br  0.85087857  0.50795269  0.43205903    -0.02900
Br482      Br  0.96804996  0.59805171  0.30963249    -0.00100
Br483      Br  0.92865298  0.51290436  0.40593624    -0.04500
C484        C  0.95919694  0.38971741  0.05623290    -0.11900
C485        C  0.97156542  0.38838453  0.07880037     0.03600
C486        C  0.97807121  0.40352584  0.10174317    -0.12400
C487        C  0.97248031  0.42006098  0.10237505     0.18500
C488        C  0.96002070  0.42125991  0.07990083    -0.09500
C489        C  0.95321008  0.40593920  0.05730726    -0.02400
H490        H  0.98804758  0.40286948  0.11878148     0.05000
C491        C  0.98132800  0.43724816  0.12551513     0.20400
H492        H  0.94389501  0.40726963  0.03997325     0.10200
C493        C  0.00609730  0.45601689  0.12722054    -0.15800
C494        C  0.01506005  0.47382863  0.14752805     0.03200
C495        C  0.99897858  0.47282469  0.16669244    -0.11100
C496        C  0.97418017  0.45390381  0.16494931    -0.01100
C497        C  0.96531389  0.43609500  0.14469859    -0.06300
H498        H  0.01842213  0.45714339  0.11218528     0.06200
H499        H  0.96164228  0.45272000  0.17967906     0.09600
Br500      Br  0.95361108  0.44481326  0.07802255    -0.06000
Br501      Br  0.98173248  0.36781728  0.07826977    -0.02900
Br502      Br  0.04905023  0.49978040  0.14650622    -0.00100
Br503      Br  0.93129692  0.41039997  0.14421790    -0.04500
C504        C  0.99689127  0.47368625  0.34147109    -0.11900
C505        C  0.97216575  0.45462112  0.34538860     0.03600
C506        C  0.96530144  0.43828368  0.36720001    -0.12400
C507        C  0.98255335  0.44075614  0.38559449     0.18500
C508        C  0.00714117  0.45984028  0.38194273    -0.09500
C509        C  0.01413052  0.47596851  0.35987699    -0.02400
H510        H  0.94636500  0.42356327  0.36991572     0.05000
C511        C  0.97443816  0.42361837  0.40890493     0.20400
H512        H  0.03313180  0.49056075  0.35733292     0.10200
C513        C  0.98102161  0.40785457  0.40978683    -0.15800
C514        C  0.97443517  0.39219202  0.43235190     0.03200
C515        C  0.96074245  0.39198383  0.45414669    -0.11100
C516        C  0.95368180  0.40734195  0.45281472    -0.01100
C517        C  0.96051184  0.42316994  0.43054558    -0.06300
H518        H  0.99178722  0.40816923  0.39319364     0.06200
H519        H  0.94326688  0.40741376  0.46958783     0.09600
Br520      Br  0.03167311  0.46523406  0.40722441    -0.06000
Br521      Br  0.94683231  0.44888639  0.32126767    -0.02900
Br522      Br  0.98613001  0.37294626  0.43352623    -0.00100
Br523      Br  0.95169321  0.44486417  0.43155918    -0.04500
C524        C  0.18061444  0.55888500  0.05625870    -0.11900
C525        C  0.19602406  0.57681520  0.07585588     0.03600
C526        C  0.18614674  0.57996032  0.09921973    -0.12400
C527        C  0.16104905  0.56549790  0.10316083     0.18500
C528        C  0.14565390  0.54768288  0.08352900    -0.09500
C529        C  0.15549714  0.54442756  0.06035985    -0.02400
H530        H  0.19801041  0.59388580  0.11416757     0.05000
C531        C  0.15088745  0.56915699  0.12762416     0.20400
H532        H  0.14348201  0.53082152  0.04517351     0.10200
C533        C  0.14772377  0.58744221  0.12714678    -0.15800
C534        C  0.13500073  0.58918838  0.14836791     0.03200
C535        C  0.12513901  0.57223504  0.17032410    -0.11100
C536        C  0.12928481  0.55460656  0.17120834    -0.01100
C537        C  0.14219227  0.55309150  0.15020863    -0.06300
H538        H  0.15434709  0.59978966  0.10962594     0.06200
H539        H  0.12217670  0.54169349  0.18817833     0.09600
Br540      Br  0.11106164  0.52804696  0.08706164    -0.06000
Br541      Br  0.23035687  0.59850792  0.07054249    -0.02900
Br542      Br  0.12991243  0.61361728  0.14476950    -0.00100
Br543      Br  0.14694610  0.52838996  0.15270164    -0.04500
C544        C  0.12372414  0.57285470  0.33998085    -0.11900
C545        C  0.12954219  0.58667348  0.36422328     0.03600
C546        C  0.14256498  0.58521064  0.38559782    -0.12400
C547        C  0.15003094  0.57029999  0.38293378     0.18500
C548        C  0.14500144  0.55722882  0.35832270    -0.09500
C549        C  0.13178132  0.55844641  0.33714341    -0.02400
H550        H  0.14619229  0.59508351  0.40470351     0.05000
C551        C  0.16093640  0.56670723  0.40695308     0.20400
H552        H  0.12757691  0.54791229  0.31846472     0.10200
C553        C  0.14622079  0.54592441  0.42319675    -0.15800
C554        C  0.15561191  0.54192514  0.44649806     0.03200
C555        C  0.18013971  0.55882198  0.45364367    -0.11100
C556        C  0.19501616  0.57940903  0.43709281    -0.01100
C557        C  0.18550926  0.58350695  0.41386062    -0.06300
H558        H  0.12726409  0.53288173  0.41783676     0.06200
H559        H  0.21388579  0.59261066  0.44270867     0.09600
Br560      Br  0.15558342  0.53727726  0.35305503    -0.06000
Br561      Br  0.11820601  0.60589024  0.37026324    -0.02900
Br562      Br  0.13430610  0.51323233  0.46805655    -0.00100
Br563      Br  0.20643406  0.61218499  0.39224257    -0.04500
C564        C  0.09163152  0.65671717  0.16589842    -0.11900
C565        C  0.11385057  0.67973194  0.16811354     0.03600
C566        C  0.12094481  0.69664853  0.14693467    -0.12400
C567        C  0.10634541  0.69086774  0.12332174     0.18500
C568        C  0.08452482  0.66756159  0.12072997    -0.09500
C569        C  0.07708646  0.65090360  0.14227329    -0.02400
H570        H  0.13793892  0.71440265  0.14884869     0.05000
C571        C  0.11519607  0.70875992  0.10072516     0.20400
H572        H  0.06013464  0.63311956  0.14028762     0.10200
C573        C  0.13645349  0.71600086  0.08700383    -0.15800
C574        C  0.14478218  0.73165396  0.06435269     0.03200
C575        C  0.13157365  0.74005249  0.05487831    -0.11100
C576        C  0.11082655  0.73365546  0.06917906    -0.01100
C577        C  0.10280453  0.71840192  0.09239885    -0.06300
H578        H  0.14629405  0.70898690  0.09355379     0.06200
H579        H  0.10078345  0.74031209  0.06210744     0.09600
Br580      Br  0.06510928  0.65699579  0.08752776    -0.06000
Br581      Br  0.13453852  0.68949877  0.20011703    -0.02900
Br582      Br  0.17377092  0.74025552  0.04625253    -0.00100
Br583      Br  0.07531668  0.71166910  0.11239645    -0.04500
C584        C  0.08886755  0.65598790  0.33842729    -0.11900
C585        C  0.07311217  0.65789815  0.35496212     0.03600
C586        C  0.08265267  0.67522211  0.37594641    -0.12400
C587        C  0.10758413  0.69057007  0.38102078     0.18500
C588        C  0.12328716  0.68870979  0.36473318    -0.09500
C589        C  0.11390035  0.67159635  0.34360070    -0.02400
H590        H  0.07048829  0.67627919  0.38898098     0.05000
C591        C  0.11654692  0.70665666  0.40521558     0.20400
H592        H  0.12633873  0.67053609  0.33116177     0.10200
C593        C  0.12252935  0.69977345  0.42930986    -0.15800
C594        C  0.13015470  0.71380055  0.45325332     0.03200
C595        C  0.13177724  0.73522213  0.45333103    -0.11100
C596        C  0.12613956  0.74228929  0.42892613    -0.01100
C597        C  0.11840948  0.72807948  0.40497245    -0.06300
H598        H  0.12118798  0.68328407  0.42946250     0.06200
H599        H  0.12747474  0.75877360  0.42862786     0.09600
Br600      Br  0.15763048  0.70908585  0.37071591    -0.06000
Br601      Br  0.03845531  0.63660986  0.35175985    -0.02900
Br602      Br  0.13906915  0.70304366  0.48447132    -0.00100
Br603      Br  0.11075388  0.73854747  0.37237497    -0.04500
C604        C  0.91339641  0.31249102  0.00296421    -0.11900
C605        C  0.91733807  0.29728102  0.48874864     0.03600
C606        C  0.89864936  0.27260350  0.48666878    -0.12400
C607        C  0.87599070  0.26291065  0.99845710     0.18500
C608        C  0.87225285  0.27795839  0.01325724    -0.09500
C609        C  0.89090506  0.30251103  0.01549276    -0.02400
H610        H  0.90161514  0.26105577  0.47537477     0.05000
C611        C  0.85581241  0.23741184  0.99396192     0.20400
H612        H  0.88759687  0.31399817  0.02634089     0.10200
C613        C  0.85320793  0.21963551  0.01137914    -0.15800
C614        C  0.83206901  0.19594138  0.01050514     0.03200
C615        C  0.81305081  0.18997653  0.99220859    -0.11100
C616        C  0.81667981  0.20756750  0.47344900    -0.01100
C617        C  0.83783894  0.23104039  0.47412032    -0.06300
H618        H  0.86726631  0.22439661  0.02633169     0.06200
H619        H  0.80246828  0.20350112  0.45919317     0.09600
Br620      Br  0.84167136  0.26582508  0.02998330    -0.06000
Br621      Br  0.94793536  0.30921919  0.47231923    -0.02900
Br622      Br  0.83026109  0.17257036  0.03452738    -0.00100
Br623      Br  0.84079812  0.25423698  0.44870063    -0.04500
C624        C  0.53840203  0.23512001  0.49567916    -0.11900
C625        C  0.51426821  0.22516479  0.48845053     0.03600
C626        C  0.50593877  0.23929919  0.48986480    -0.12400
C627        C  0.52125740  0.26328209  0.49870624     0.18500
C628        C  0.54523261  0.27310795  0.00662642    -0.09500
C629        C  0.55365573  0.25901575  0.00495807    -0.02400
H630        H  0.48733072  0.23149016  0.48427567     0.05000
C631        C  0.51148028  0.27735015  0.50020514     0.20400
H632        H  0.57212242  0.26666476  0.01103763     0.10200
C633        C  0.49358987  0.27090140  0.01990212    -0.15800
C634        C  0.48309088  0.28311192  0.02120651     0.03200
C635        C  0.49078660  0.30241347  0.50273869    -0.11100
C636        C  0.50857798  0.30861463  0.48286419    -0.01100
C637        C  0.51865486  0.29606840  0.48123544    -0.06300
H638        H  0.48753077  0.25605914  0.03404377     0.06200
H639        H  0.51468829  0.32330829  0.46846096     0.09600
Br640      Br  0.56672926  0.30523461  0.02085863    -0.06000
Br641      Br  0.49151457  0.19198997  0.47836056    -0.02900
Br642      Br  0.45723144  0.27143301  0.04721649    -0.00100
Br643      Br  0.54119530  0.30433765  0.45188238    -0.04500
C644        C  0.65910339  0.09930726  0.16239784    -0.11900
C645        C  0.67881328  0.09814610  0.16509750     0.03600
C646        C  0.69569260  0.10672714  0.14362943    -0.12400
C647        C  0.69325626  0.11656353  0.11940033     0.18500
C648        C  0.67371581  0.11805011  0.11688708    -0.09500
C649        C  0.65700595  0.10974062  0.13852723    -0.02400
H650        H  0.71067431  0.10557464  0.14572456     0.05000
C651        C  0.71017437  0.12342653  0.09618535     0.20400
H652        H  0.64187984  0.11065323  0.13630558     0.10200
C653        C  0.70924484  0.10521855  0.08196427    -0.15800
C654        C  0.72358848  0.11060374  0.05854310     0.03200
C655        C  0.73907855  0.13458037  0.04891618    -0.11100
C656        C  0.74092904  0.15294739  0.06408648    -0.01100
C657        C  0.72676304  0.14756013  0.08769304    -0.06300
H658        H  0.69696986  0.08669980  0.08880512     0.06200
H659        H  0.75288158  0.17145151  0.05708952     0.09600
Br660      Br  0.66812544  0.12968730  0.08362237    -0.06000
Br661      Br  0.68410692  0.08609574  0.19818317    -0.02900
Br662      Br  0.72168052  0.08464862  0.04086729    -0.00100
Br663      Br  0.73073309  0.17369914  0.10763245    -0.04500
C664        C  0.73461099  0.12774303  0.44626483    -0.11900
C665        C  0.73428526  0.14331576  0.42735125     0.03600
C666        C  0.71742933  0.13373649  0.40569187    -0.12400
C667        C  0.70018188  0.10880826  0.40287431     0.18500
C668        C  0.70073474  0.09316974  0.42128260    -0.09500
C669        C  0.71792128  0.10271009  0.44272230    -0.02400
H670        H  0.71716586  0.14586834  0.39149261     0.05000
C671        C  0.68168661  0.09979920  0.38076627     0.20400
H672        H  0.71775255  0.09054118  0.45729679     0.10200
C673        C  0.68140821  0.08632222  0.35892153    -0.15800
C674        C  0.66548157  0.07921187  0.33650195     0.03200
C675        C  0.64989074  0.08623985  0.33538604    -0.11100
C676        C  0.65000117  0.09949042  0.35744078    -0.01100
C677        C  0.66544283  0.10594404  0.38023484    -0.06300
H678        H  0.69397604  0.08172947  0.35906243     0.06200
H679        H  0.63781430  0.10455453  0.35712793     0.09600
Br680      Br  0.67740680  0.05883113  0.41923442    -0.06000
Br681      Br  0.75428475  0.17768164  0.43154670    -0.02900
Br682      Br  0.66728021  0.06135358  0.30744587    -0.00100
Br683      Br  0.66310610  0.12241098  0.41056675    -0.04500
C684        C  0.57768291  0.13206912  0.15715274    -0.11900
C685        C  0.59386282  0.15741987  0.15625241     0.03600
C686        C  0.59248224  0.16994950  0.13419035    -0.12400
C687        C  0.57529670  0.15747219  0.11291576     0.18500
C688        C  0.56013269  0.13213389  0.11306484    -0.09500
C689        C  0.56115288  0.11967991  0.13529519    -0.02400
H690        H  0.60439264  0.18943448  0.13396306     0.05000
C691        C  0.57320073  0.17095504  0.09067352     0.20400
H692        H  0.54887252  0.10020238  0.13559108     0.10200
C693        C  0.59109187  0.18255888  0.07020165    -0.15800
C694        C  0.58832282  0.19320454  0.04716175     0.03200
C695        C  0.56710885  0.19196137  0.04421591    -0.11100
C696        C  0.54992591  0.18157484  0.06565522    -0.01100
C697        C  0.55293693  0.17129064  0.08887729    -0.06300
H698        H  0.60699510  0.18286290  0.07185751     0.06200
H699        H  0.53371867  0.18073191  0.06392629     0.09600
Br700      Br  0.53797832  0.11375222  0.08319867    -0.06000
Br701      Br  0.61670191  0.17582255  0.18552139    -0.02900
Br702      Br  0.61439822  0.20968567  0.02088528    -0.00100
Br703      Br  0.52883249  0.15769136  0.11749074    -0.04500
C704        C  0.57143043  0.12802002  0.33197125    -0.11900
C705        C  0.58689454  0.15338983  0.33100419     0.03600
C706        C  0.58539874  0.16656035  0.35173563    -0.12400
C707        C  0.56891880  0.15472710  0.37366165     0.18500
C708        C  0.55382801  0.12937788  0.37484153    -0.09500
C709        C  0.55495672  0.11624695  0.35385192    -0.02400
H710        H  0.59694332  0.18602125  0.35068023     0.05000
C711        C  0.56762463  0.16889489  0.39532658     0.20400
H712        H  0.54305143  0.09677496  0.35470329     0.10200
C713        C  0.54629248  0.16706170  0.39816877    -0.15800
C714        C  0.54291791  0.17714997  0.42102589     0.03200
C715        C  0.56148926  0.18995975  0.44108168    -0.11100
C716        C  0.58344731  0.19307990  0.43706734    -0.01100
C717        C  0.58652769  0.18247030  0.41461238    -0.06300
H718        H  0.53166818  0.15655129  0.38333107     0.06200
H719        H  0.59791043  0.20292558  0.45223109     0.09600
Br720      Br  0.53197243  0.11186211  0.40514373    -0.06000
Br721      Br  0.60903977  0.17087614  0.30094878    -0.02900
Br722      Br  0.51161757  0.17020137  0.42510179    -0.00100
Br723      Br  0.61590068  0.18507882  0.41270917    -0.04500
C724        C  0.31269020  0.91887660  0.99161340    -0.11900
C725        C  0.29578411  0.91988624  0.00670855     0.03600
C726        C  0.27167538  0.89948697  0.00820549    -0.12400
C727        C  0.26423661  0.87810613  0.99480971     0.18500
C728        C  0.28091027  0.87734413  0.47904296    -0.09500
C729        C  0.30490112  0.89758548  0.47761981    -0.02400
H730        H  0.25879122  0.90016062  0.02018064     0.05000
C731        C  0.23942461  0.85623346  0.99856852     0.20400
H732        H  0.31768807  0.89651665  0.46597803     0.10200
C733        C  0.22055209  0.85288993  0.48248942    -0.15800
C734        C  0.19730038  0.83114952  0.48376558     0.03200
C735        C  0.19283907  0.81246573  0.00137410    -0.11100
C736        C  0.21167511  0.81629966  0.01811639    -0.01100
C737        C  0.23479610  0.83797174  0.01686547    -0.06300
H738        H  0.22405506  0.86702026  0.46851642     0.06200
H739        H  0.20857348  0.80210471  0.03165720     0.09600
Br740      Br  0.27180203  0.84886933  0.45955514    -0.06000
Br741      Br  0.30447207  0.94873110  0.02481287    -0.02900
Br742      Br  0.17226986  0.82808554  0.46158468    -0.00100
Br743      Br  0.25972983  0.84165658  0.03993210    -0.04500
C744        C  0.47257614  0.01096020  0.15393032    -0.11900
C745        C  0.45120969  0.98720548  0.15204887     0.03600
C746        C  0.43542572  0.98075434  0.12967935    -0.12400
C747        C  0.44052682  0.99760442  0.10907786     0.18500
C748        C  0.46138469  0.02150094  0.11136772    -0.09500
C749        C  0.47717783  0.02805686  0.13382379    -0.02400
H750        H  0.41921968  0.96245656  0.12814563     0.05000
C751        C  0.42444365  0.98941068  0.08468743     0.20400
H752        H  0.49340970  0.04637221  0.13516279     0.10200
C753        C  0.40820723  0.99534784  0.08208791    -0.15800
C754        C  0.39246583  0.98727756  0.05926185     0.03200
C755        C  0.39293654  0.97306749  0.03879110    -0.11100
C756        C  0.40917525  0.96713071  0.04154885    -0.01100
C757        C  0.42483432  0.97514677  0.06428722    -0.06300
H758        H  0.40787724  0.00634251  0.09777962     0.06200
H759        H  0.40975196  0.95631358  0.02581183     0.09600
Br760      Br  0.46958478  0.04538920  0.08369907    -0.06000
Br761      Br  0.44177520  0.96307638  0.17995185    -0.02900
Br762      Br  0.37163132  0.99709541  0.05616029    -0.00100
Br763      Br  0.44690462  0.96673119  0.06628670    -0.04500
C764        C  0.38790476  0.96711827  0.43674991    -0.11900
C765        C  0.40050314  0.95719991  0.43189277     0.03600
C766        C  0.41465921  0.96383598  0.40817621    -0.12400
C767        C  0.41626017  0.98011310  0.38906925     0.18500
C768        C  0.40234039  0.98874387  0.39289910    -0.09500
C769        C  0.38832095  0.98228900  0.41685693    -0.02400
H770        H  0.42499341  0.95678114  0.40497685     0.05000
C771        C  0.43352764  0.98861644  0.36614431     0.20400
H772        H  0.37823545  0.98957231  0.42032935     0.10200
C773        C  0.42927256  0.97237804  0.34536156    -0.15800
C774        C  0.44618299  0.97942275  0.32431938     0.03200
C775        C  0.46766190  0.00317884  0.32398233    -0.11100
C776        C  0.47181777  0.01935221  0.34484416    -0.01100
C777        C  0.45513802  0.01214496  0.36610299    -0.06300
H778        H  0.41280154  0.95418106  0.34561889     0.06200
H779        H  0.48837017  0.03750901  0.34498692     0.09600
Br780      Br  0.40208977  0.00934181  0.36609495    -0.06000
Br781      Br  0.39895052  0.93460042  0.45709535    -0.02900
Br782      Br  0.43821805  0.95613159  0.29617348    -0.00100
Br783      Br  0.46341267  0.03459383  0.39546907    -0.04500
C784        C  0.54436596  0.73432644  0.00378399    -0.11900
C785        C  0.52451559  0.73287157  0.49255343     0.03600
C786        C  0.52488261  0.75328321  0.49171950    -0.12400
C787        C  0.54450211  0.77518427  0.00260945     0.18500
C788        C  0.56363883  0.77638246  0.01555263    -0.09500
C789        C  0.56359957  0.75607151  0.01576883    -0.02400
H790        H  0.50970731  0.75205551  0.48264894     0.05000
C791        C  0.54417592  0.79629560  0.00052653     0.20400
H792        H  0.57862155  0.75725394  0.02523806     0.10200
C793        C  0.52670967  0.79624234  0.01544462    -0.15800
C794        C  0.52493016  0.81529814  0.01290127     0.03200
C795        C  0.54106997  0.83501108  0.99541353    -0.11100
C796        C  0.55816303  0.83475363  0.47994800    -0.01100
C797        C  0.55967017  0.81547014  0.48222084    -0.06300
H798        H  0.51422843  0.78115634  0.02884577     0.06200
H799        H  0.57049747  0.84967495  0.46628081     0.09600
Br800      Br  0.58954739  0.80499230  0.03404190    -0.06000
Br801      Br  0.49559204  0.70323931  0.48008230    -0.02900
Br802      Br  0.49922969  0.81276756  0.03251730    -0.00100
Br803      Br  0.58236925  0.81554818  0.45909277    -0.04500
C804        C  0.55318224  0.97304260  0.15317743    -0.11900
C805        C  0.53333138  0.96043667  0.13460131     0.03600
C806        C  0.53258386  0.94551883  0.11449230    -0.12400
C807        C  0.55124404  0.94289985  0.11252752     0.18500
C808        C  0.57113359  0.95563708  0.13072550    -0.09500
C809        C  0.57197097  0.97055233  0.15081328    -0.02400
H810        H  0.51753778  0.93617787  0.09995802     0.05000
C811        C  0.55042100  0.92816298  0.09002969     0.20400
H812        H  0.58729863  0.97996428  0.16493909     0.10200
C813        C  0.56766892  0.93965573  0.06885106    -0.15800
C814        C  0.56662596  0.92669231  0.04613808     0.03200
C815        C  0.54754739  0.90197457  0.04396959    -0.11100
C816        C  0.53082000  0.89023032  0.06567428    -0.01100
C817        C  0.53221953  0.90316167  0.08877479    -0.06300
H818        H  0.58190794  0.95886612  0.06992017     0.06200
H819        H  0.51629211  0.87111130  0.06428340     0.09600
Br820      Br  0.59727305  0.95279377  0.12940682    -0.06000
Br821      Br  0.50733241  0.96357571  0.13425252    -0.02900
Br822      Br  0.59206278  0.94341126  0.01911417    -0.00100
Br823      Br  0.50917245  0.88604109  0.11814277    -0.04500
C824        C  0.54554903  0.96567571  0.32710263    -0.11900
C825        C  0.52723740  0.95684943  0.34732132     0.03600
C826        C  0.52526254  0.94193362  0.36875219    -0.12400
C827        C  0.54132025  0.93574465  0.37041845     0.18500
C828        C  0.55918852  0.94407984  0.34996538    -0.09500
C829        C  0.56126733  0.95901872  0.32864129    -0.02400
H830        H  0.51172977  0.93584885  0.38474533     0.05000
C831        C  0.54079140  0.92259582  0.39500359     0.20400
H832        H  0.57525386  0.96544324  0.31315555     0.10200
C833        C  0.52257000  0.89778357  0.39776239    -0.15800
C834        C  0.52190536  0.88514000  0.42115374     0.03200
C835        C  0.53993856  0.89741526  0.44185578    -0.11100
C836        C  0.55813845  0.92224504  0.43880078    -0.01100
C837        C  0.55841766  0.93489186  0.41594099    -0.06300
H838        H  0.50872224  0.88836964  0.38192138     0.06200
H839        H  0.57190275  0.93198556  0.45465459     0.09600
Br840      Br  0.58135716  0.93577373  0.35064550    -0.06000
Br841      Br  0.50586000  0.96615078  0.34837666    -0.02900
Br842      Br  0.49508088  0.85181288  0.42482908    -0.00100
Br843      Br  0.58249610  0.96919480  0.41494706    -0.04500
C844        C  0.54109885  0.85640483  0.49419651     0.03200
C845        C  0.53953174  0.86550836  0.96862369    -0.12900
C846        C  0.53937915  0.88579631  0.96811607     0.00700
C847        C  0.54087563  0.89677400  0.99318997    -0.11500
C848        C  0.54394747  0.88873438  0.51838771     0.03200
C849        C  0.54388103  0.86848901  0.51892467    -0.10900
H850        H  0.53868781  0.85701846  0.94932136     0.08800
H851        H  0.54049727  0.91228187  0.99302702     0.06300
H852        H  0.54639102  0.86236899  0.53854681     0.06200
C853        C  0.33863669  0.93924389  0.49044531     0.03200
C854        C  0.35027266  0.94668415  0.96455362    -0.12900
C855        C  0.37544090  0.96267704  0.96320235     0.00700
C856        C  0.38908271  0.97226411  0.48759088    -0.11500
C857        C  0.37777887  0.96522080  0.51354861     0.03200
C858        C  0.35251256  0.94857266  0.51498386    -0.10900
H859        H  0.33987831  0.93888671  0.94554395     0.08800
H860        H  0.40865327  0.98434646  0.48638966     0.06300
H861        H  0.34385990  0.94189312  0.53509325     0.06200
N862        N  0.61476809  0.08301632  0.77892535    -0.06000
N863        N  0.62890386  0.09515831  0.80046614    -0.58100
N864        N  0.61451526  0.06637307  0.71384679    -0.05700
N865        N  0.62853851  0.06702232  0.69465830    -0.60300
N866        N  0.61783787  0.08720072  0.71502696    -0.05300
N867        N  0.63394847  0.10236409  0.69645830    -0.58100
N868        N  0.61103575  0.06202543  0.77714687    -0.05000
N869        N  0.62248460  0.05943796  0.79720129    -0.60600
C870        C  0.63360844  0.08019434  0.81154409     0.96100
C871        C  0.64046897  0.08953713  0.68401163     0.95900
N872        N  0.54498553  0.00106565  0.70816095    -0.06200
N873        N  0.53548940  0.98566186  0.68737461    -0.58700
N874        N  0.56551528  0.00825606  0.77286446    -0.04300
N875        N  0.57077482  0.99900099  0.79306459    -0.60000
N876        N  0.54204753  0.99738231  0.77167781    -0.06200
N877        N  0.53084508  0.98058305  0.79107549    -0.59000
N878        N  0.56849868  0.01225380  0.70933928    -0.04000
N879        N  0.57549412  0.00469335  0.68938730    -0.60100
Mn880      Mn  0.59033650  0.03701007  0.74321701     1.18400
C881        C  0.55474339  0.98827730  0.67567190     0.98200
C882        C  0.54899796  0.98191049  0.80438458     0.98900
N883        N  0.58387371  0.10377147  0.71457761    -0.06300
N884        N  0.59454068  0.12043960  0.69487627    -0.62600
N885        N  0.55743874  0.08867781  0.77674885    -0.05100
N886        N  0.55005965  0.09624634  0.79622516    -0.63200
N887        N  0.58101952  0.10024132  0.77813818    -0.05800
N888        N  0.59026888  0.11618394  0.79845140    -0.62800
N889        N  0.56026736  0.09206055  0.71323727    -0.04700
N890        N  0.55430794  0.10026131  0.69261540    -0.63500
Mn891      Mn  0.60008535  0.09437179  0.74680197     1.10700
C892        C  0.57577742  0.11797243  0.68143809     0.99500
C893        C  0.57068106  0.11334650  0.80952782     0.99500
N894        N  0.50824203  0.01385346  0.77116522    -0.05800
N895        N  0.49179794  0.99877190  0.78946742    -0.61100
N896        N  0.51463607  0.03835007  0.70903900    -0.05100
N897        N  0.50198313  0.03987555  0.68953358    -0.57900
N898        N  0.51096022  0.01737652  0.70797186    -0.06400
N899        N  0.49564484  0.00411347  0.68781559    -0.60700
N900        N  0.51203968  0.03487171  0.77242768    -0.05400
N901        N  0.49837626  0.03464293  0.79168510    -0.57900
Mn902      Mn  0.52602444  0.00671964  0.73967312     1.20200
Mn903      Mn  0.53577218  0.06372774  0.74288454     1.10100
Cl904      Cl  0.56307770  0.05047842  0.74313858    -0.85900
C905        C  0.48582288  0.01202012  0.80203215     0.96500
C906        C  0.49019846  0.01836366  0.67654090     0.96300
C907        C  0.54769931  0.22062907  0.99448239     0.03200
C908        C  0.55033615  0.21293050  0.96875325    -0.12900
C909        C  0.55789352  0.19801549  0.96774374     0.00700
C910        C  0.56294668  0.19108139  0.99264189    -0.11500
C911        C  0.56170822  0.19973460  0.51832381     0.03200
C912        C  0.55380941  0.21437628  0.51915873    -0.10900
H913        H  0.54657783  0.21861392  0.94966187     0.08800
H914        H  0.56783990  0.17877970  0.99198951     0.06300
H915        H  0.55213342  0.22066221  0.53893768     0.06200
C916        C  0.78838443  0.16698419  0.49436483     0.03200
C917        C  0.77666230  0.15961107  0.52026749    -0.12900
C918        C  0.75194507  0.14064119  0.52210308     0.00700
C919        C  0.73866615  0.12965535  0.49768192    -0.11500
C920        C  0.74987995  0.13707997  0.97162994     0.03200
C921        C  0.77492467  0.15505242  0.97015886    -0.10900
H922        H  0.78642308  0.16946461  0.53893069     0.08800
H923        H  0.71920417  0.11632018  0.49885313     0.06300
H924        H  0.78361488  0.16084876  0.95001512     0.06200
N925        N  0.99225587  0.54729128  0.78303335    -0.06000
N926        N  0.97562867  0.53810134  0.80268687    -0.58100
N927        N  0.00498099  0.57021323  0.71867246    -0.05700
N928        N  0.99667700  0.57688520  0.69887695    -0.60300
N929        N  0.99263026  0.54662452  0.71929971    -0.05300
N930        N  0.97560515  0.53675708  0.69995909    -0.58100
N931        N  0.00450137  0.57085796  0.78222247    -0.05000
N932        N  0.99653492  0.57820965  0.80120219    -0.60600
C933        C  0.97848018  0.55765916  0.81372861     0.96100
C934        C  0.97832604  0.55584563  0.68740457     0.95900
N935        N  0.08098425  0.61722169  0.72052114    -0.06200
N936        N  0.09585296  0.63275417  0.70132978    -0.58700
N937        N  0.05930466  0.61466869  0.78296118    -0.04300
N938        N  0.05872239  0.62767127  0.80244040    -0.60000
N939        N  0.07982696  0.61720292  0.78404637    -0.06200
N940        N  0.09363036  0.63199461  0.80428474    -0.59000
N941        N  0.06018220  0.61416554  0.71937067    -0.04000
N942        N  0.06033563  0.62734852  0.69927564    -0.60100
Mn943      Mn  0.03210196  0.59289073  0.75069856     1.18400
C944        C  0.08265416  0.63881463  0.68827410     0.98200
C945        C  0.08015767  0.63825537  0.81574527     0.98900
N946        N  0.00746540  0.51121527  0.72118949    -0.06300
N947        N  0.99367573  0.49641492  0.70091092    -0.62600
N948        N  0.02737770  0.51437871  0.78569031    -0.05100
N949        N  0.02747996  0.50167541  0.80623515    -0.63200
N950        N  0.00676215  0.51167908  0.78497560    -0.05800
N951        N  0.99237340  0.49701372  0.80501002    -0.62800
N952        N  0.02815823  0.51406166  0.72197867    -0.04700
N953        N  0.02893540  0.50136110  0.70227163    -0.63500
Mn954      Mn  0.99900465  0.52853943  0.75212484     1.10700
C955        C  0.00743558  0.49062447  0.68912430     0.99500
C956        C  0.00550570  0.49086723  0.81806429     0.99500
N957        N  0.09445681  0.58163120  0.78617363    -0.05800
N958        N  0.11106022  0.59116727  0.80603122    -0.61100
N959        N  0.08311518  0.55784811  0.72293347    -0.05100
N960        N  0.09147473  0.55070941  0.70420374    -0.57900
N961        N  0.09536066  0.58142429  0.72240946    -0.06400
N962        N  0.11230819  0.59083228  0.70313809    -0.60700
N963        N  0.08231828  0.55806185  0.78607667    -0.05400
N964        N  0.09043920  0.55104042  0.80559575    -0.57900
Mn965      Mn  0.08841256  0.60000082  0.75331408     1.20200
Mn966      Mn  0.05534389  0.53564586  0.75418040     1.10100
Cl967      Cl  0.04371865  0.56427746  0.75254427    -0.85900
C968        C  0.10813339  0.57178844  0.81804724     0.96500
C969        C  0.10951274  0.57140006  0.69184539     0.96300
C970        C  0.21313129  0.54578139  0.00492038     0.03200
C971        C  0.20540125  0.54959435  0.97965363    -0.12900
C972        C  0.18969768  0.55623274  0.97970660     0.00700
C973        C  0.18209896  0.55956139  0.00490134    -0.11500
C974        C  0.18992189  0.55621244  0.53017101     0.03200
C975        C  0.20554655  0.54942728  0.53018362    -0.10900
H976        H  0.21097277  0.54670926  0.96007442     0.08800
H977        H  0.16984440  0.56462426  0.00481800     0.06300
H978        H  0.21155532  0.54674037  0.54979050     0.06200
C979        C  0.93175934  0.33890358  0.50381272     0.03200
C980        C  0.93971859  0.35225239  0.97889608    -0.12900
C981        C  0.95500032  0.37747861  0.97958515     0.00700
C982        C  0.96252434  0.38928018  0.50518745    -0.11500
C983        C  0.95416246  0.37631062  0.53014333     0.03200
C984        C  0.93884161  0.35106605  0.52944473    -0.10900
H985        H  0.93300504  0.34307006  0.95908449     0.08800
H986        H  0.97402708  0.40881809  0.50566802     0.06300
H987        H  0.93165416  0.34093838  0.54868242     0.06200
C988        C  0.85161099  0.55136723  0.99959922     0.03200
C989        C  0.86268364  0.55257240  0.97447210    -0.12900
C990        C  0.88309936  0.55254551  0.97469849     0.00700
C991        C  0.89273036  0.55189831  0.00014306    -0.11500
C992        C  0.88211389  0.55094455  0.52536959     0.03200
C993        C  0.86136438  0.55040595  0.52497786    -0.10900
H994        H  0.85571224  0.55396956  0.95483460     0.08800
H995        H  0.90872504  0.55227379  0.00028825     0.06300
H996        H  0.85277205  0.54921407  0.54438338     0.06200
C997        C  0.16927240  0.78841428  0.50185359     0.03200
C998        C  0.15990684  0.77470244  0.97736715    -0.12900
C999        C  0.13962216  0.75049059  0.97839524     0.00700
C1000       C  0.12826722  0.74030208  0.50393664    -0.11500
C1001       C  0.13827298  0.75339010  0.52853591     0.03200
C1002       C  0.15834909  0.77756321  0.52744665    -0.10900
H1003       H  0.16929266  0.78236049  0.95786922     0.08800
H1004       H  0.11291793  0.72147822  0.50499852     0.06300
H1005       H  0.16649000  0.78735994  0.54666287     0.06200
N1006       N  0.48073086  0.45742643  0.72183649    -0.06000
N1007       N  0.46999417  0.44160787  0.70145934    -0.58100
N1008       N  0.50147683  0.46601678  0.78705060    -0.05700
N1009       N  0.50573937  0.45652849  0.80792183    -0.60300
N1010       N  0.47834746  0.45674756  0.78570499    -0.05300
N1011       N  0.46633275  0.44054004  0.80561595    -0.58100
N1012       N  0.50374126  0.46629856  0.72333439    -0.05000
N1013       N  0.50910615  0.45665092  0.70407568    -0.60600
C1014       C  0.48793780  0.44141931  0.69040476     0.96100
C1015       C  0.48376678  0.44086667  0.81948919     0.95900
N1016       N  0.55660613  0.53984955  0.78865059    -0.06200
N1017       N  0.57199496  0.55261102  0.80901892    -0.58700
N1018       N  0.55282278  0.51834089  0.72526388    -0.04300
N1019       N  0.56469551  0.51556511  0.70626939    -0.60000
N1020       N  0.55938768  0.54054460  0.72496471    -0.06200
N1021       N  0.57605831  0.55342517  0.70576054    -0.59000
N1022       N  0.55056140  0.51784665  0.78874173    -0.04000
N1023       N  0.56180736  0.51519385  0.80904610    -0.60100
Mn1024     Mn  0.52744493  0.49184294  0.75611545     1.18400
C1025       C  0.57487690  0.53690309  0.82169949     0.98200
C1026       C  0.57894394  0.53746545  0.69410506     0.98900
N1027       N  0.44923242  0.47909981  0.78247496    -0.06300
N1028       N  0.43204623  0.46596783  0.80107498    -0.62600
N1029       N  0.45820537  0.50197889  0.71864141    -0.05100
N1030       N  0.44710504  0.50476022  0.69826549    -0.63200
N1031       N  0.45202308  0.47989578  0.71877615    -0.05800
N1032       N  0.43664538  0.46719891  0.69834437    -0.62800
N1033       N  0.45545725  0.50118514  0.78190155    -0.04700
N1034       N  0.44262419  0.50351932  0.79991772    -0.63500
Mn1035     Mn  0.46441501  0.46754754  0.75221081     1.10700
C1036       C  0.42804230  0.48145548  0.81164201     0.99500
C1037       C  0.43402179  0.48307570  0.68566192     0.99500
N1038       N  0.53054271  0.56298937  0.72213006    -0.05800
N1039       N  0.54295932  0.57926828  0.70247296    -0.61100
N1040       N  0.50494102  0.55330297  0.78448358    -0.05100
N1041       N  0.49982411  0.56300736  0.80401543    -0.57900
N1042       N  0.52797992  0.56218146  0.78557773    -0.06400
N1043       N  0.53903933  0.57815153  0.80570094    -0.60700
N1044       N  0.50750906  0.55405224  0.72055867    -0.05400
N1045       N  0.50372845  0.56393309  0.69964125    -0.57900
Mn1046     Mn  0.54423953  0.55207353  0.75532984     1.20200
Mn1047     Mn  0.48120487  0.52793639  0.75138421     1.10100
Cl1048     Cl  0.50429933  0.50984112  0.75375249    -0.85900
C1049       C  0.52594488  0.57944619  0.68844045     0.96500
C1050       C  0.52132135  0.57852993  0.81697240     0.96300
C1051       C  0.48102674  0.31665633  0.00368995     0.03200
C1052       C  0.48120337  0.32720852  0.52868412    -0.12900
C1053       C  0.47512827  0.34331492  0.52874991     0.00700
C1054       C  0.46913119  0.34915031  0.50375654    -0.11500
C1055       C  0.46889668  0.33886449  0.97860588     0.03200
C1056       C  0.47447736  0.32232169  0.97881542    -0.10900
H1057       H  0.48738007  0.32402647  0.54779005     0.08800
H1058       H  0.46602296  0.36281263  0.50377417     0.06300
H1059       H  0.47477663  0.31465960  0.95935045     0.06200
C1060       C  0.31299252  0.48309370  0.50009225     0.03200
C1061       C  0.31937031  0.47868779  0.52592349    -0.12900
C1062       C  0.33276491  0.46940165  0.52720824     0.00700
C1063       C  0.33988076  0.46458657  0.50261517    -0.11500
C1064       C  0.33418706  0.46944499  0.97671987     0.03200
C1065       C  0.32066777  0.47865910  0.97548757    -0.10900
H1066       H  0.31435689  0.48294312  0.54502003     0.08800
H1067       H  0.35115484  0.45839912  0.50365085     0.06300
H1068       H  0.31699223  0.48330038  0.95551927     0.06200
C1069       C  0.71266382  0.56356768  0.50592061     0.03200
C1070       C  0.70484845  0.56599661  0.53176012    -0.12900
C1071       C  0.68518853  0.56720704  0.53324982     0.00700
C1072       C  0.67352800  0.56615094  0.50864514    -0.11500
C1073       C  0.68123261  0.56386273  0.98279109     0.03200
C1074       C  0.70105248  0.56299189  0.98144332    -0.10900
H1075       H  0.71377676  0.56653407  0.55070372     0.08800
H1076       H  0.65773722  0.56611836  0.50965663     0.06300
H1077       H  0.70672638  0.56077827  0.96149407     0.06200
C1078       C  0.54514610  0.71336599  0.50363419     0.03200
C1079       C  0.54762323  0.70451521  0.52877072    -0.12900
C1080       C  0.54743559  0.68408186  0.52892066     0.00700
C1081       C  0.54573603  0.67312397  0.50372857    -0.11500
C1082       C  0.54364327  0.68194617  0.97848335     0.03200
C1083       C  0.54339835  0.70213751  0.97844578    -0.10900
H1084       H  0.54908347  0.71314415  0.54822289     0.08800
H1085       H  0.54535608  0.65720005  0.50380737     0.06300
H1086       H  0.54191255  0.70912421  0.95888742     0.06200
C1087       C  0.34546003  0.46809918  0.95152577    -0.11900
C1088       C  0.33172042  0.45302347  0.92895342     0.03600
C1089       C  0.34349152  0.45259058  0.90556126    -0.12400
C1090       C  0.36883008  0.46694360  0.90451132     0.18500
C1091       C  0.38251956  0.48197436  0.92705043    -0.09500
C1092       C  0.37080870  0.48235438  0.95035945    -0.02400
H1093       H  0.33291588  0.44111379  0.88816127     0.05000
C1094       C  0.38098614  0.46748029  0.87913810     0.20400
H1095       H  0.38153786  0.49413039  0.96751194     0.10200
C1096       C  0.38352774  0.48204411  0.85696487    -0.15800
C1097       C  0.39796850  0.48602111  0.83417648     0.03200
C1098       C  0.41022500  0.47530290  0.83346963    -0.11100
C1099       C  0.40634648  0.45943776  0.85490404    -0.01100
C1100       C  0.39192690  0.45557743  0.87775981    -0.06300
H1101       H  0.37483093  0.49095732  0.85781634     0.06200
H1102       H  0.41537799  0.45085447  0.85449678     0.09600
Br1103     Br  0.41724830  0.50301061  0.92641020    -0.06000
Br1104     Br  0.29704903  0.43213882  0.92956626    -0.02900
Br1105     Br  0.39959744  0.50576275  0.80454647    -0.00100
Br1106     Br  0.38839525  0.43475945  0.90714645    -0.04500
C1107       C  0.34302063  0.46854229  0.55373781    -0.11900
C1108       C  0.33818598  0.44694116  0.56411115     0.03600
C1109       C  0.35161932  0.44763183  0.58659747    -0.12400
C1110       C  0.36980766  0.46965942  0.59882375     0.18500
C1111       C  0.37396892  0.49110613  0.58914795    -0.09500
C1112       C  0.36051762  0.49040478  0.56680307    -0.02400
H1113       H  0.34816530  0.43103986  0.59428344     0.05000
C1114       C  0.38479404  0.47025978  0.62125210     0.20400
H1115       H  0.36450512  0.50713338  0.55875054     0.10200
C1116       C  0.40639536  0.47353580  0.61445623    -0.15800
C1117       C  0.42233864  0.47683361  0.63539022     0.03200
C1118       C  0.41661637  0.47685659  0.66338673    -0.11100
C1119       C  0.39470635  0.47289448  0.67018386    -0.01100
C1120       C  0.37872624  0.46949267  0.64928586    -0.06300
H1121       H  0.41117254  0.47429083  0.59287556     0.06200
H1122       H  0.39030955  0.47300870  0.69172448     0.09600
Br1123     Br  0.39856535  0.52183088  0.60503555    -0.06000
Br1124     Br  0.31347483  0.41627917  0.54822444    -0.02900
Br1125     Br  0.45232429  0.48276115  0.62490271    -0.00100
Br1126     Br  0.34931343  0.46484689  0.65969946    -0.04500
C1127       C  0.54157474  0.66950887  0.95251848    -0.11900
C1128       C  0.52043970  0.65745416  0.93606733     0.03600
C1129       C  0.51817627  0.64367975  0.91341421    -0.12400
C1130       C  0.53615576  0.64060066  0.90754816     0.18500
C1131       C  0.55743999  0.65284581  0.92386324    -0.09500
C1132       C  0.56004514  0.66730079  0.94594282    -0.02400
H1133       H  0.50183501  0.63453502  0.90091036     0.05000
C1134       C  0.53216481  0.62437580  0.88457626     0.20400
H1135       H  0.57620478  0.67615721  0.95875593     0.10200
C1136       C  0.54877475  0.63360354  0.86262920    -0.15800
C1137       C  0.54573180  0.61890215  0.84063768     0.03200
C1138       C  0.52522159  0.59461988  0.83981415    -0.11100
C1139       C  0.50823556  0.58549789  0.86134212    -0.01100
C1140       C  0.51174062  0.59999891  0.88387186    -0.06300
H1141       H  0.56421644  0.65239014  0.86259976     0.06200
H1142       H  0.49255325  0.56682347  0.86105153     0.09600
Br1143     Br  0.58268531  0.64906622  0.91847353    -0.06000
Br1144     Br  0.49293410  0.65666403  0.94534082    -0.02900
Br1145     Br  0.56963515  0.63346792  0.81176181    -0.00100
Br1146     Br  0.48879140  0.58514924  0.91374989    -0.04500
C1147       C  0.54790188  0.67310263  0.55515160    -0.11900
C1148       C  0.52958452  0.66433581  0.57524863     0.03600
C1149       C  0.52863625  0.65096559  0.59782708    -0.12400
C1150       C  0.54536955  0.64569078  0.60051452     0.18500
C1151       C  0.56380397  0.65458780  0.58062345    -0.09500
C1152       C  0.56512574  0.66845293  0.55836831    -0.02400
H1153       H  0.51409647  0.64370674  0.61276628     0.05000
C1154       C  0.54151880  0.62880628  0.62257337     0.20400
H1155       H  0.57899955  0.67470601  0.54275042     0.10200
C1156       C  0.52086877  0.60484397  0.62105584    -0.15800
C1157       C  0.51559832  0.58838649  0.64213638     0.03200
C1158       C  0.53130294  0.59586723  0.66516934    -0.11100
C1159       C  0.55224962  0.61974477  0.66640811    -0.01100
C1160       C  0.55727675  0.63630954  0.64549997    -0.06300
H1161       H  0.50870970  0.59896644  0.60339055     0.06200
H1162       H  0.56432032  0.62575541  0.68417503     0.09600
Br1163     Br  0.58603239  0.64635750  0.58136998    -0.06000
Br1164     Br  0.50371519  0.66744763  0.57129919    -0.02900
Br1165     Br  0.48731476  0.55578711  0.63768026    -0.00100
Br1166     Br  0.58492459  0.66919014  0.64996212    -0.04500
C1167       C  0.59252269  0.54333602  0.84400764    -0.11900
C1168       C  0.59647099  0.55856958  0.86620401     0.03600
C1169       C  0.61306366  0.56349237  0.88718005    -0.12400
C1170       C  0.62584269  0.55351052  0.88625859     0.18500
C1171       C  0.62221956  0.53869222  0.86390879    -0.09500
C1172       C  0.60560794  0.53365463  0.84305429    -0.02400
H1173       H  0.61546530  0.57450855  0.90469816     0.05000
C1174       C  0.64069799  0.55640090  0.91030786     0.20400
H1175       H  0.60288526  0.52207735  0.82603308     0.10200
C1176       C  0.62970957  0.53904983  0.93146331    -0.15800
C1177       C  0.64288895  0.54092299  0.95480197     0.03200
C1178       C  0.66740617  0.56072680  0.95745945    -0.11100
C1179       C  0.67861283  0.57779474  0.93588410    -0.01100
C1180       C  0.66541239  0.57567874  0.91227369    -0.06300
H1181       H  0.61080830  0.52384492  0.92964777     0.06200
H1182       H  0.69756807  0.59289711  0.93756976     0.09600
Br1183     Br  0.63914404  0.52450381  0.86147351    -0.06000
Br1184     Br  0.57824605  0.57129232  0.87031923    -0.02900
Br1185     Br  0.62691199  0.51527485  0.98168504    -0.00100
Br1186     Br  0.68168300  0.59913378  0.88309816    -0.04500
C1187       C  0.59624846  0.54327128  0.67179732    -0.11900
C1188       C  0.59005085  0.52693504  0.65001823     0.03600
C1189       C  0.60711085  0.53256443  0.62971417    -0.12400
C1190       C  0.63066938  0.55398953  0.63100556     0.18500
C1191       C  0.63695817  0.57027722  0.65286590    -0.09500
C1192       C  0.61966486  0.56496915  0.67284785    -0.02400
H1193       H  0.60192153  0.52014281  0.61265196     0.05000
C1194       C  0.64776034  0.55930612  0.60842390     0.20400
H1195       H  0.62475181  0.57749776  0.68975285     0.10200
C1196       C  0.65607954  0.57909202  0.59084314    -0.15800
C1197       C  0.66960549  0.58287071  0.56711838     0.03200
C1198       C  0.67471457  0.56644397  0.56041540    -0.11100
C1199       C  0.66741189  0.54734150  0.57875684    -0.01100
C1200       C  0.65405247  0.54367840  0.60258660    -0.06300
H1201       H  0.65140199  0.59127899  0.59515083     0.06200
H1202       H  0.67124767  0.53457793  0.57391795     0.09600
Br1203     Br  0.66919000  0.59924536  0.65712311    -0.06000
Br1204     Br  0.55827533  0.49717064  0.64606459    -0.02900
Br1205     Br  0.68077355  0.61079750  0.54474382    -0.00100
Br1206     Br  0.64451811  0.51686538  0.62624093    -0.04500
C1207       C  0.46687611  0.34850925  0.95195120    -0.11900
C1208       C  0.44858369  0.35161286  0.94712044     0.03600
C1209       C  0.44998522  0.36475775  0.92392994    -0.12400
C1210       C  0.46913057  0.37449527  0.90502088     0.18500
C1211       C  0.48637365  0.36987549  0.90869984    -0.09500
C1212       C  0.48523209  0.35710857  0.93207643    -0.02400
H1213       H  0.43648723  0.36795290  0.92104632     0.05000
C1214       C  0.47212904  0.39124168  0.88318319     0.20400
H1215       H  0.49933875  0.35480642  0.93529818     0.10200
C1216       C  0.49208316  0.41553250  0.88481879    -0.15800
C1217       C  0.49589825  0.43209841  0.86463349     0.03200
C1218       C  0.47927146  0.42447026  0.84249467    -0.11100
C1219       C  0.45887338  0.40030794  0.84134042    -0.01100
C1220       C  0.45534279  0.38364344  0.86132175    -0.06300
H1221       H  0.50484124  0.42160834  0.90190619     0.06200
H1222       H  0.44613082  0.39415243  0.82422813     0.09600
Br1223     Br  0.51199794  0.38092417  0.88254733    -0.06000
Br1224     Br  0.42117005  0.33806277  0.97119840    -0.02900
Br1225     Br  0.52364455  0.46500079  0.86908106    -0.00100
Br1226     Br  0.42830716  0.35051069  0.85694049    -0.04500
C1227       C  0.48467135  0.42518959  0.66789172    -0.11900
C1228       C  0.46661956  0.41645381  0.64712104     0.03600
C1229       C  0.46482088  0.40155144  0.62607815    -0.12400
C1230       C  0.48042931  0.39480225  0.62553993     0.18500
C1231       C  0.49790953  0.40284489  0.64658405    -0.09500
C1232       C  0.50010195  0.41811786  0.66732964    -0.02400
H1233       H  0.45141468  0.39549255  0.60972741     0.05000
C1234       C  0.47939831  0.38087571  0.60173201     0.20400
H1235       H  0.51378500  0.42423749  0.68334099     0.10200
C1236       C  0.49689467  0.39305086  0.58086761    -0.15800
C1237       C  0.49597444  0.38087751  0.55725446     0.03200
C1238       C  0.47738349  0.35608771  0.55437143    -0.11100
C1239       C  0.46017426  0.34373201  0.57554369    -0.01100
C1240       C  0.46098230  0.35602355  0.59910343    -0.06300
H1241       H  0.51112244  0.41216708  0.58282400     0.06200
H1242       H  0.44582139  0.32467015  0.57342296     0.09600
Br1243     Br  0.51865986  0.39283810  0.64810007    -0.06000
Br1244     Br  0.44469084  0.42502622  0.64515962    -0.02900
Br1245     Br  0.52055595  0.39879871  0.52952921    -0.00100
Br1246     Br  0.43667863  0.33838369  0.62711167    -0.04500
C1247       C  0.73260890  0.56109671  0.50434517    -0.11900
C1248       C  0.73175448  0.54274636  0.51888438     0.03600
C1249       C  0.75118969  0.54131778  0.51719297    -0.12400
C1250       C  0.77141873  0.55769947  0.50085784     0.18500
C1251       C  0.77182328  0.57530544  0.98534598    -0.09500
C1252       C  0.75258350  0.57699749  0.98731484    -0.02400
H1253       H  0.75053426  0.52735099  0.52865416     0.05000
C1254       C  0.79199944  0.55624300  0.50045896     0.20400
H1255       H  0.75324682  0.59084850  0.97556763     0.10200
C1256       C  0.79007357  0.53790255  0.98531128    -0.15800
C1257       C  0.80916566  0.53587153  0.98486754     0.03200
C1258       C  0.83073868  0.55253898  0.99963036    -0.11100
C1259       C  0.83241136  0.57067509  0.51512419    -0.01100
C1260       C  0.81323120  0.57253949  0.51572502    -0.06300
H1261       H  0.77355243  0.52499129  0.97400872     0.06200
H1262       H  0.84874099  0.58347018  0.52679971     0.09600
Br1263     Br  0.79800826  0.59697408  0.96076332    -0.06000
Br1264     Br  0.70393402  0.51824754  0.53981307    -0.02900
Br1265     Br  0.80399067  0.50899545  0.96547124    -0.00100
Br1266     Br  0.81643594  0.59711075  0.53832351    -0.04500
C1267       C  0.29969317  0.49381575  0.49907022    -0.11900
C1268       C  0.27719225  0.48220857  0.98539621     0.03600
C1269       C  0.26471962  0.49244817  0.98580475    -0.12400
C1270       C  0.27416518  0.51406373  0.49996456     0.18500
C1271       C  0.29653560  0.52558647  0.51386968    -0.09500
C1272       C  0.30919940  0.51553726  0.51313302    -0.02400
H1273       H  0.24725113  0.48319499  0.97563059     0.05000
C1274       C  0.25934248  0.52304810  0.00179907     0.20400
H1275       H  0.32634125  0.52447580  0.52400686     0.10200
C1276       C  0.23773568  0.50953033  0.51692875    -0.15800
C1277       C  0.22253221  0.51667301  0.51839979     0.03200
C1278       C  0.22901321  0.53789378  0.00467599    -0.11100
C1279       C  0.25064905  0.55137273  0.98944658    -0.01100
C1280       C  0.26573569  0.54406648  0.98781127    -0.06300
H1281       H  0.23249859  0.49308705  0.52732433     0.06200
H1282       H  0.25572109  0.56756575  0.97855758     0.09600
Br1283     Br  0.30967063  0.55408318  0.53564834    -0.06000
Br1284     Br  0.26166268  0.45134333  0.96806812    -0.02900
Br1285     Br  0.19238853  0.49569421  0.53763881    -0.00100
Br1286     Br  0.29419008  0.56268063  0.96519504    -0.04500
C1287       C  0.89300173  0.55024129  0.55174761    -0.11900
C1288       C  0.90087160  0.56758559  0.57285553     0.03600
C1289       C  0.91364013  0.56778424  0.59583316    -0.12400
C1290       C  0.91911382  0.55120614  0.59796144     0.18500
C1291       C  0.91078575  0.53356823  0.57726958    -0.09500
C1292       C  0.89775829  0.53312717  0.55454682    -0.02400
H1293       H  0.92000527  0.58141299  0.61171269     0.05000
C1294       C  0.93415393  0.55294237  0.62135727     0.20400
H1295       H  0.89191624  0.51975022  0.53846828     0.10200
C1296       C  0.92387851  0.53436313  0.64115445    -0.15800
C1297       C  0.93783552  0.53482533  0.66284237     0.03200
C1298       C  0.96264683  0.55423584  0.66491901    -0.11100
C1299       C  0.97271371  0.57311071  0.64544642    -0.01100
C1300       C  0.95873585  0.57257279  0.62376015    -0.12000
H1301       H  0.90491143  0.51944654  0.63968599     0.06200
H1302       H  0.99163284  0.58818399  0.64682522     0.09600
Br1303     Br  0.91821571  0.51077772  0.57806430    -0.06000
Br1304     Br  0.89678934  0.59275877  0.57029984    -0.02900
Br1305     Br  0.92139672  0.50920179  0.68971759    -0.00100
Br1306     Br  0.97431518  0.59862646  0.59739424    -0.04500
C1307       C  0.89534624  0.55404707  0.94873606    -0.11900
C1308       C  0.88387954  0.53556624  0.92869313     0.03600
C1309       C  0.89710849  0.53632494  0.90619592    -0.12400
C1310       C  0.92177415  0.55518525  0.90342073     0.18500
C1311       C  0.93308735  0.57402907  0.92295223    -0.09500
C1312       C  0.91987758  0.57329001  0.94541427    -0.02400
H1313       H  0.88826706  0.52188825  0.89110522     0.05000
C1314       C  0.93545824  0.55496925  0.88005752     0.20400
H1315       H  0.92892182  0.58752738  0.96074828     0.10200
C1316       C  0.94428323  0.57264256  0.85935628    -0.15800
C1317       C  0.95808767  0.57370074  0.83742918     0.03200
C1318       C  0.96321585  0.55669102  0.83593503    -0.11100
C1319       C  0.95368230  0.53849874  0.85622584    -0.01100
C1320       C  0.93995788  0.53758004  0.87825512    -0.06300
H1321       H  0.94043096  0.58571535  0.86033453     0.06200
H1322       H  0.95737397  0.52530189  0.85532508     0.09600
Br1323     Br  0.96679048  0.60050811  0.92063923    -0.06000
Br1324     Br  0.85087909  0.50795340  0.93205854    -0.02900
Br1325     Br  0.96805043  0.59805145  0.80963154    -0.00100
Br1326     Br  0.92865384  0.51290529  0.90593677    -0.04500
C1327       C  0.95919774  0.38971742  0.55623263    -0.11900
C1328       C  0.97156646  0.38838467  0.57879992     0.03600
C1329       C  0.97807240  0.40352602  0.60174274    -0.12400
C1330       C  0.97248138  0.42006109  0.60237475     0.18500
C1331       C  0.96002163  0.42125995  0.57990066    -0.09500
C1332       C  0.95321085  0.40593918  0.55730712    -0.02400
H1333       H  0.98804877  0.40286974  0.61878072     0.05000
C1334       C  0.98132904  0.43724821  0.62551490     0.20400
H1335       H  0.94389563  0.40726955  0.53997319     0.10200
C1336       C  0.00609833  0.45601699  0.62722033    -0.15800
C1337       C  0.01506101  0.47382869  0.64752789     0.03200
C1338       C  0.99897949  0.47282467  0.66669228    -0.11100
C1339       C  0.97418113  0.45390374  0.66494910    -0.01100
C1340       C  0.96531488  0.43609494  0.64469839    -0.06300
H1341       H  0.01842314  0.45714356  0.61218512     0.06200
H1342       H  0.96164292  0.45271982  0.67967922     0.09600
Br1343     Br  0.95361202  0.44481332  0.57802248    -0.06000
Br1344     Br  0.98173366  0.36781754  0.57826906    -0.02900
Br1345     Br  0.04905118  0.49978050  0.64650613    -0.00100
Br1346     Br  0.93129794  0.41039983  0.64421768    -0.04500
C1347       C  0.99689175  0.47368600  0.84147092    -0.11900
C1348       C  0.97216620  0.45462082  0.84538820     0.03600
C1349       C  0.96530177  0.43828344  0.86719967    -0.12400
C1350       C  0.98255352  0.44075597  0.88559445     0.18500
C1351       C  0.00714136  0.45984016  0.88194295    -0.09500
C1352       C  0.01413087  0.47596835  0.85987713    -0.02400
H1353       H  0.94636512  0.42356285  0.86991525     0.05000
C1354       C  0.97443817  0.42361827  0.90890498     0.20400
H1355       H  0.03313216  0.49056064  0.85733324     0.10200
C1356       C  0.98102143  0.40785430  0.90978695    -0.15800
C1357       C  0.97443481  0.39219180  0.93235216     0.03200
C1358       C  0.96074221  0.39198386  0.95414691    -0.11100
C1359       C  0.95368179  0.40734218  0.95281480    -0.01100
C1360       C  0.96051196  0.42317010  0.93054554    -0.06300
H1361       H  0.99178665  0.40816877  0.89319429     0.06200
H1362       H  0.94326697  0.40741418  0.96958782     0.09600
Br1363     Br  0.03167306  0.46523399  0.90722509    -0.06000
Br1364     Br  0.94683292  0.44888597  0.82126687    -0.02900
Br1365     Br  0.98612936  0.37294578  0.93352660    -0.00100
Br1366     Br  0.95169360  0.44486455  0.93155880    -0.04500
C1367       C  0.18061466  0.55888544  0.55625813    -0.11900
C1368       C  0.19602451  0.57681600  0.57585485     0.03600
C1369       C  0.18614749  0.57996128  0.59921886    -0.12400
C1370       C  0.16104988  0.56549870  0.60316055     0.18500
C1371       C  0.14565447  0.54768343  0.58352905    -0.09500
C1372       C  0.15549745  0.54442795  0.56035979    -0.02400
H1373       H  0.19801138  0.59388704  0.61416646     0.05000
C1374       C  0.15088857  0.56915783  0.62762413     0.20400
H1375       H  0.14348196  0.53082148  0.54517351     0.10200
C1376       C  0.14772502  0.58744312  0.62714712    -0.15800
C1377       C  0.13500204  0.58918921  0.64836834     0.03200
C1378       C  0.12514013  0.57223561  0.67032428    -0.11100
C1379       C  0.12928592  0.55460712  0.67120827    -0.01100
C1380       C  0.14219344  0.55309222  0.65020848    -0.06300
H1381       H  0.15434851  0.59979093  0.60962609     0.06200
H1382       H  0.12217774  0.54169386  0.68817818     0.09600
Br1383     Br  0.11106227  0.52804741  0.58706236    -0.06000
Br1384     Br  0.23035720  0.59850893  0.57054059    -0.02900
Br1385     Br  0.12991413  0.61361842  0.64477045    -0.00100
Br1386     Br  0.14694741  0.52839077  0.65270120    -0.04500
C1387       C  0.12372461  0.57285472  0.83998096    -0.11900
C1388       C  0.12954193  0.58667300  0.86422368     0.03600
C1389       C  0.14256463  0.58521021  0.88559835    -0.12400
C1390       C  0.15003121  0.57030008  0.88293416     0.18500
C1391       C  0.14500237  0.55722938  0.85832285    -0.09500
C1392       C  0.13178236  0.55844695  0.83714342    -0.02400
H1393       H  0.14619142  0.59508269  0.90470423     0.05000
C1394       C  0.16093663  0.56670737  0.90695352     0.20400
H1395       H  0.12757841  0.54791308  0.81846435     0.10200
C1396       C  0.14622091  0.54592469  0.92319738    -0.15800
C1397       C  0.15561206  0.54192551  0.94649878     0.03200
C1398       C  0.18013992  0.55882225  0.95364422    -0.11100
C1399       C  0.19501648  0.57940915  0.93709315    -0.01100
C1400       C  0.18550955  0.58350698  0.91386088    -0.06300
H1401       H  0.12726457  0.53288235  0.91783762     0.06200
H1402       H  0.21388593  0.59261053  0.94270879     0.09600
Br1403     Br  0.15558505  0.53727841  0.85305514    -0.06000
Br1404     Br  0.11820480  0.60588892  0.87026379    -0.02900
Br1405     Br  0.13430616  0.51323289  0.96805752    -0.00100
Br1406     Br  0.20643442  0.61218479  0.89224249    -0.04500
C1407       C  0.09163204  0.65671706  0.66589841    -0.11900
C1408       C  0.11385113  0.67973181  0.66811351     0.03600
C1409       C  0.12094544  0.69664844  0.64693465    -0.12400
C1410       C  0.10634600  0.69086765  0.62332173     0.18500
C1411       C  0.08452540  0.66756152  0.62072995    -0.09500
C1412       C  0.07708700  0.65090352  0.64227326    -0.02400
H1413       H  0.13793927  0.71440224  0.64884865     0.05000
C1414       C  0.11519657  0.70875991  0.60072524     0.20400
H1415       H  0.06013515  0.63311948  0.64028758     0.10200
C1416       C  0.13645400  0.71600100  0.58700380    -0.15800
C1417       C  0.14478258  0.73165416  0.56435272     0.03200
C1418       C  0.13157393  0.74005261  0.55487851    -0.11100
C1419       C  0.11082684  0.73365544  0.56917939    -0.01100
C1420       C  0.10280495  0.71840186  0.59239913    -0.06300
H1421       H  0.14629467  0.70898709  0.59355365     0.06200
H1422       H  0.10078364  0.74031199  0.56210792     0.09600
Br1423     Br  0.06510987  0.65699575  0.58752772    -0.06000
Br1424     Br  0.13453912  0.68949860  0.70011695    -0.02900
Br1425     Br  0.17377135  0.74025596  0.54625243    -0.00100
Br1426     Br  0.07531717  0.71166896  0.61239700    -0.04500
C1427       C  0.08886784  0.65598771  0.83842717    -0.11900
C1428       C  0.07311246  0.65789808  0.85496185     0.03600
C1429       C  0.08265298  0.67522200  0.87594614    -0.12400
C1430       C  0.10758438  0.69056978  0.88102075     0.18500
C1431       C  0.12328740  0.68870934  0.86473335    -0.09500
C1432       C  0.11390061  0.67159597  0.84360082    -0.02400
H1433       H  0.07048833  0.67627922  0.88898086     0.05000
C1434       C  0.11654712  0.70665636  0.90521553     0.20400
H1435       H  0.12633897  0.67053560  0.83116205     0.10200
C1436       C  0.12252919  0.69977299  0.92930996    -0.15800
C1437       C  0.13015453  0.71380012  0.95325339     0.03200
C1438       C  0.13177736  0.73522187  0.95333091    -0.11100
C1439       C  0.12614002  0.74228915  0.92892586    -0.01100
C1440       C  0.11841000  0.72807935  0.90497219    -0.06300
H1441       H  0.12118759  0.68328350  0.92946274     0.06200
H1442       H  0.12747545  0.75877376  0.92862745     0.09600
Br1443     Br  0.15763067  0.70908508  0.87071646    -0.06000
Br1444     Br  0.03845561  0.63661001  0.85175933    -0.02900
Br1445     Br  0.13906863  0.70304308  0.98447156    -0.00100
Br1446     Br  0.11075496  0.73854758  0.87237445    -0.04500
C1447       C  0.91339663  0.31249100  0.50296387    -0.11900
C1448       C  0.91733793  0.29728112  0.98874896     0.03600
C1449       C  0.89864926  0.27260359  0.98666907    -0.12400
C1450       C  0.87599079  0.26291064  0.49845679     0.18500
C1451       C  0.87225300  0.27795846  0.51325681    -0.09500
C1452       C  0.89090528  0.30251110  0.51549232    -0.02400
H1453       H  0.90161510  0.26105583  0.97537492     0.05000
C1454       C  0.85581251  0.23741179  0.49396177     0.20400
H1455       H  0.88759714  0.31399832  0.52634044     0.10200
C1456       C  0.85320810  0.21963554  0.51137910    -0.15800
C1457       C  0.83206924  0.19594138  0.51050519     0.03200
C1458       C  0.81305103  0.18997639  0.49220857    -0.11100
C1459       C  0.81667966  0.20756774  0.97344913    -0.01100
C1460       C  0.83783887  0.23104059  0.97412050    -0.06300
H1461       H  0.86726655  0.22439676  0.52633172     0.06200
H1462       H  0.80246812  0.20350147  0.95919332     0.09600
Br1463     Br  0.84167152  0.26582530  0.52998278    -0.06000
Br1464     Br  0.94793527  0.30921940  0.97231960    -0.02900
Br1465     Br  0.83026135  0.17257051  0.53452768    -0.00100
Br1466     Br  0.84079820  0.25423736  0.94870097    -0.04500
C1467       C  0.53840223  0.23511998  0.99568018    -0.11900
C1468       C  0.51426860  0.22516504  0.98845088     0.03600
C1469       C  0.50593925  0.23929952  0.98986520    -0.12400
C1470       C  0.52125781  0.26328222  0.99870733     0.18500
C1471       C  0.54523243  0.27310811  0.50662464    -0.09500
C1472       C  0.55365560  0.25901597  0.50495631    -0.02400
H1473       H  0.48733143  0.23149076  0.98427557     0.05000
C1474       C  0.51148085  0.27735040  0.00020615     0.20400
H1475       H  0.57212283  0.26666537  0.51103548     0.10200
C1476       C  0.49358935  0.27090111  0.51990119    -0.15800
C1477       C  0.48309018  0.28311145  0.52120566     0.03200
C1478       C  0.49078745  0.30241395  0.00273949    -0.11100
C1479       C  0.50857889  0.30861505  0.98286511    -0.01100
C1480       C  0.51865567  0.29606873  0.98123649    -0.06300
H1481       H  0.48753028  0.25605865  0.53404306     0.06200
H1482       H  0.51468934  0.32330879  0.96846185     0.09600
Br1483     Br  0.56672929  0.30523508  0.52085592    -0.06000
Br1484     Br  0.49151500  0.19199048  0.97835992    -0.02900
Br1485     Br  0.45723062  0.27143222  0.54721557    -0.00100
Br1486     Br  0.54119638  0.30433805  0.95188375    -0.04500
C1487       C  0.65910333  0.09930797  0.66239756    -0.11900
C1488       C  0.67881326  0.09814689  0.66509740     0.03600
C1489       C  0.69569261  0.10672785  0.64362938    -0.12400
C1490       C  0.69325625  0.11656409  0.61940014     0.18500
C1491       C  0.67371577  0.11805059  0.61688671    -0.09500
C1492       C  0.65700588  0.10974119  0.63852683    -0.02400
H1493       H  0.71067428  0.10557540  0.64572463     0.05000
C1494       C  0.71017440  0.12342700  0.59618522     0.20400
H1495       H  0.64187979  0.11065373  0.63630506     0.10200
C1496       C  0.70924503  0.10521895  0.58196449    -0.15800
C1497       C  0.72358876  0.11060407  0.55854342     0.03200
C1498       C  0.73907875  0.13458063  0.54891627    -0.11100
C1499       C  0.74092908  0.15294772  0.56408622    -0.01100
C1500       C  0.72676298  0.14756055  0.58769269    -0.06300
H1501       H  0.69697026  0.08670046  0.58880543     0.06200
H1502       H  0.75288147  0.17145165  0.55708913     0.09600
Br1503     Br  0.66812534  0.12968752  0.58362180    -0.06000
Br1504     Br  0.68410689  0.08609674  0.69818328    -0.02900
Br1505     Br  0.72168101  0.08464891  0.54086804    -0.00100
Br1506     Br  0.73073284  0.17369963  0.60763170    -0.04500
C1507       C  0.73461077  0.12774345  0.94626464    -0.11900
C1508       C  0.73428496  0.14331626  0.92735130     0.03600
C1509       C  0.71742908  0.13373713  0.90569182    -0.12400
C1510       C  0.70018175  0.10880886  0.90287403     0.18500
C1511       C  0.70073467  0.09317027  0.92128213    -0.09500
C1512       C  0.71792117  0.10271053  0.94272187    -0.02400
H1513       H  0.71716557  0.14586873  0.89149307     0.05000
C1514       C  0.68168654  0.09979984  0.88076591     0.20400
H1515       H  0.71775249  0.09054156  0.95729621     0.10200
C1516       C  0.68140821  0.08632293  0.85892112    -0.15800
C1517       C  0.66548154  0.07921253  0.83650156     0.03200
C1518       C  0.64989066  0.08624044  0.83538566    -0.11100
C1519       C  0.65000099  0.09949095  0.85744043    -0.01100
C1520       C  0.66544267  0.10594457  0.88023451    -0.06300
H1521       H  0.69397610  0.08173023  0.85906201     0.06200
H1522       H  0.63781427  0.10455489  0.85712761     0.09600
Br1523     Br  0.67740684  0.05883166  0.91923370    -0.06000
Br1524     Br  0.75428431  0.17768212  0.93154717    -0.02900
Br1525     Br  0.66728019  0.06135420  0.80744552    -0.00100
Br1526     Br  0.66310573  0.12241129  0.91056651    -0.04500
C1527       C  0.57768234  0.13206933  0.65715242    -0.11900
C1528       C  0.59386218  0.15742008  0.65625196     0.03600
C1529       C  0.59248150  0.16994957  0.63418981    -0.12400
C1530       C  0.57529594  0.15747212  0.61291527     0.18500
C1531       C  0.56013198  0.13213383  0.61306451    -0.09500
C1532       C  0.56115227  0.11967999  0.63529494    -0.02400
H1533       H  0.60439186  0.18943456  0.63396239     0.05000
C1534       C  0.57320002  0.17095486  0.59067284     0.20400
H1535       H  0.54887193  0.10020241  0.63559094     0.10200
C1536       C  0.59109123  0.18255862  0.57020107    -0.15800
C1537       C  0.58832239  0.19320436  0.54716111     0.03200
C1538       C  0.56710852  0.19196137  0.54421514    -0.11100
C1539       C  0.54992549  0.18157483  0.56565432    -0.01100
C1540       C  0.55293627  0.17129053  0.58887643    -0.06300
H1541       H  0.60699445  0.18286256  0.57185708     0.06200
H1542       H  0.53371796  0.18073198  0.56392521     0.09600
Br1543     Br  0.53797761  0.11375197  0.58319840    -0.06000
Br1544     Br  0.61670128  0.17582294  0.68552086    -0.02900
Br1545     Br  0.61439791  0.20968538  0.52088480    -0.00100
Br1546     Br  0.52883165  0.15769127  0.61748966    -0.04500
C1547       C  0.57143023  0.12802043  0.83197113    -0.11900
C1548       C  0.58689463  0.15339026  0.83100445     0.03600
C1549       C  0.58539889  0.16656070  0.85173606    -0.12400
C1550       C  0.56891869  0.15472738  0.87366183     0.18500
C1551       C  0.55382751  0.12937814  0.87484125    -0.09500
C1552       C  0.55495625  0.11624734  0.85385152    -0.02400
H1553       H  0.59694374  0.18602163  0.85068097     0.05000
C1554       C  0.56762465  0.16889510  0.89532698     0.20400
H1555       H  0.54305045  0.09677494  0.85470260     0.10200
C1556       C  0.54629270  0.16706230  0.89816907    -0.15800
C1557       C  0.54291818  0.17715048  0.92102633     0.03200
C1558       C  0.56148939  0.18995980  0.94108238    -0.11100
C1559       C  0.58344729  0.19307963  0.93706813    -0.01100
C1560       C  0.58652761  0.18247010  0.91461301    -0.06300
H1561       H  0.53166854  0.15655228  0.88333121     0.06200
H1562       H  0.59791025  0.20292495  0.95223194     0.09600
Br1563     Br  0.53197132  0.11186218  0.90514292    -0.06000
Br1564     Br  0.60904016  0.17087672  0.80094934    -0.02900
Br1565     Br  0.51161801  0.17020233  0.92510192    -0.00100
Br1566     Br  0.61590035  0.18507817  0.91270989    -0.04500
C1567       C  0.31268995  0.91887706  0.49161322    -0.11900
C1568       C  0.29578390  0.91988670  0.50670845     0.03600
C1569       C  0.27167518  0.89948744  0.50820539    -0.12400
C1570       C  0.26423631  0.87810662  0.49480953     0.18500
C1571       C  0.28091060  0.87734362  0.97904327    -0.09500
C1572       C  0.30490146  0.89758500  0.97762008    -0.02400
H1573       H  0.25879084  0.90016111  0.52018084     0.05000
C1574       C  0.23942434  0.85623394  0.49856844     0.20400
H1575       H  0.31768827  0.89651620  0.96597855     0.10200
C1576       C  0.22055242  0.85288959  0.98248948    -0.15800
C1577       C  0.19730069  0.83114921  0.98376557     0.03200
C1578       C  0.19283886  0.81246609  0.50137417    -0.11100
C1579       C  0.21167496  0.81630018  0.51811643    -0.01100
C1580       C  0.23479591  0.83797228  0.51686547    -0.06300
H1581       H  0.22405544  0.86701987  0.96851664     0.06200
H1582       H  0.20857339  0.80210511  0.53165745     0.09600
Br1583     Br  0.27180246  0.84886876  0.95955566    -0.06000
Br1584     Br  0.30447192  0.94873157  0.52481283    -0.02900
Br1585     Br  0.17227023  0.82808533  0.96158463    -0.00100
Br1586     Br  0.25972972  0.84165735  0.53993217    -0.04500
C1587       C  0.47257613  0.01096074  0.65392991    -0.11900
C1588       C  0.45120978  0.98720597  0.65204831     0.03600
C1589       C  0.43542579  0.98075488  0.62967883    -0.12400
C1590       C  0.44052681  0.99760501  0.60907745     0.18500
C1591       C  0.46138462  0.02150156  0.61136741    -0.09500
C1592       C  0.47717774  0.02805744  0.63382350    -0.02400
H1593       H  0.41921977  0.96245702  0.62814500     0.05000
C1594       C  0.42444363  0.98941130  0.58468703     0.20400
H1595       H  0.49340963  0.04637294  0.63516261     0.10200
C1596       C  0.40820734  0.99534861  0.58208742    -0.15800
C1597       C  0.39246586  0.98727827  0.55926143     0.03200
C1598       C  0.39293636  0.97306797  0.53879085    -0.11100
C1599       C  0.40917494  0.96713101  0.54154864    -0.01100
C1600       C  0.42483409  0.97514716  0.56428695    -0.06300
H1601       H  0.40787750  0.00634351  0.59777910     0.06200
H1602       H  0.40975148  0.95631385  0.52581192     0.09600
Br1603     Br  0.46958466  0.04538986  0.58369886    -0.06000
Br1604     Br  0.44177548  0.96307666  0.67995093    -0.02900
Br1605     Br  0.37163149  0.99709627  0.55615978    -0.00100
Br1606     Br  0.44690430  0.96673147  0.56628643    -0.04500
C1607       C  0.38790501  0.96711803  0.93675012    -0.11900
C1608       C  0.40050355  0.95719984  0.93189297     0.03600
C1609       C  0.41465962  0.96383597  0.90817638    -0.12400
C1610       C  0.41626035  0.98011297  0.88906940     0.18500
C1611       C  0.40234044  0.98874358  0.89289927    -0.09500
C1612       C  0.38832105  0.98228863  0.91685712    -0.02400
H1613       H  0.42499373  0.95678141  0.90497707     0.05000
C1614       C  0.43352776  0.98861637  0.86614441     0.20400
H1615       H  0.37823522  0.98957196  0.92032962     0.10200
C1616       C  0.42927260  0.97237808  0.84536146    -0.15800
C1617       C  0.44618293  0.97942291  0.82431914     0.03200
C1618       C  0.46766185  0.00317900  0.82398218    -0.11100
C1619       C  0.47181780  0.01935224  0.84484420    -0.01100
C1620       C  0.45513813  0.01214489  0.86610315    -0.06300
H1621       H  0.41280154  0.95418107  0.84561873     0.06200
H1622       H  0.48837027  0.03750913  0.84498702     0.09600
Br1623     Br  0.40208963  0.00934140  0.86609509    -0.06000
Br1624     Br  0.39895116  0.93460047  0.95709554    -0.02900
Br1625     Br  0.43821785  0.95613195  0.79617289    -0.00100
Br1626     Br  0.46341284  0.03459360  0.89546942    -0.04500
C1627       C  0.54436483  0.73432550  0.50378405    -0.11900
C1628       C  0.52451609  0.73287187  0.99255441     0.03600
C1629       C  0.52488273  0.75328331  0.99172024    -0.12400
C1630       C  0.54450172  0.77518376  0.50260974     0.18500
C1631       C  0.56363789  0.77638138  0.51555363    -0.09500
C1632       C  0.56359821  0.75607021  0.51576976    -0.02400
H1633       H  0.50970714  0.75205515  0.98265047     0.05000
C1634       C  0.54417583  0.79629526  0.50052719     0.20400
H1635       H  0.57861997  0.75725222  0.52523973     0.10200
C1636       C  0.52670947  0.79624192  0.51544518    -0.15800
C1637       C  0.52493007  0.81529779  0.51290194     0.03200
C1638       C  0.54107004  0.83501084  0.49541441    -0.11100
C1639       C  0.55816276  0.83475371  0.97994690    -0.01100
C1640       C  0.55966997  0.81547027  0.98221981    -0.06300
H1641       H  0.51422819  0.78115593  0.52884595     0.06200
H1642       H  0.57049712  0.84967501  0.96627939     0.09600
Br1643     Br  0.58954622  0.80499077  0.53404376    -0.06000
Br1644     Br  0.49559220  0.70323899  0.98008525    -0.02900
Br1645     Br  0.49922951  0.81276713  0.53251784    -0.00100
Br1646     Br  0.58236870  0.81554809  0.95909131    -0.04500
C1647       C  0.55318179  0.97304252  0.65317760    -0.11900
C1648       C  0.53333074  0.96043623  0.63460179     0.03600
C1649       C  0.53258313  0.94551821  0.61449297    -0.12400
C1650       C  0.55124341  0.94289938  0.61252812     0.18500
C1651       C  0.57113309  0.95563686  0.63072589    -0.09500
C1652       C  0.57197061  0.97055234  0.65081350    -0.02400
H1653       H  0.51753696  0.93617705  0.59995890     0.05000
C1654       C  0.55042037  0.92816246  0.59003032     0.20400
H1655       H  0.58729799  0.97996427  0.66493874     0.10200
C1656       C  0.56766828  0.93965518  0.56885170    -0.15800
C1657       C  0.56662538  0.92669176  0.54613877     0.03200
C1658       C  0.54754680  0.90197403  0.54397028    -0.11100
C1659       C  0.53081939  0.89022979  0.56567495    -0.01100
C1660       C  0.53221889  0.90316115  0.58877544    -0.06300
H1661       H  0.58190740  0.95886573  0.56992079     0.06200
H1662       H  0.51629148  0.87111072  0.56428408     0.09600
Br1663     Br  0.59727264  0.95279368  0.62940718    -0.06000
Br1664     Br  0.50733155  0.96357494  0.63425311    -0.02900
Br1665     Br  0.59206227  0.94341066  0.51911495    -0.00100
Br1666     Br  0.50917180  0.88604062  0.61814343    -0.04500
C1667       C  0.54554900  0.96567629  0.82710222    -0.11900
C1668       C  0.52723720  0.95684975  0.84732074     0.03600
C1669       C  0.52526239  0.94193397  0.86875160    -0.12400
C1670       C  0.54132030  0.93574525  0.87041803     0.18500
C1671       C  0.55918868  0.94408062  0.84996505    -0.09500
C1672       C  0.56126749  0.95901951  0.82864096    -0.02400
H1673       H  0.51172937  0.93584896  0.88474476     0.05000
C1674       C  0.54079146  0.92259641  0.89500314     0.20400
H1675       H  0.57525385  0.96544406  0.81315562     0.10200
C1676       C  0.52256989  0.89778421  0.89776207    -0.15800
C1677       C  0.52190529  0.88514060  0.92115335     0.03200
C1678       C  0.53993872  0.89741576  0.94185517    -0.11100
C1679       C  0.55813873  0.92224549  0.93880005    -0.01100
C1680       C  0.55841790  0.93489237  0.91594038    -0.06300
H1681       H  0.50872198  0.88837035  0.88192121     0.06200
H1682       H  0.57190333  0.93198604  0.95465392     0.09600
Br1683     Br  0.58135748  0.93577471  0.85064522    -0.06000
Br1684     Br  0.50585941  0.96615066  0.84837581    -0.02900
Br1685     Br  0.49508058  0.85181360  0.92482896    -0.00100
Br1686     Br  0.58249654  0.96919528  0.91494640    -0.04500
loop_ 
_geom_bond_atom_site_label_1 
_geom_bond_atom_site_label_2 
_geom_bond_distance 
_geom_bond_site_symmetry_2 
_ccdc_geom_bond_type 
C1            C6   1.402   1_556  A
C1          C845   1.409       .  A
C1          C795   1.476       .  S
C2            C3   1.406       .  A
C2          C844   1.409       .  A
C2            H7   1.083       .  S
C3            C4   1.398       .  A
C3          C835   1.479       .  S
C4          C848   1.394       .  A
C4            H8   1.086       .  S
C5            C6   1.394       .  A
C5          C847   1.394   1_554  A
C5          C815   1.467       .  S
C6            H9   1.084       .  S
C10          C15   1.407   1_556  A
C10         C854   1.403       .  A
C10         C724   1.477       .  S
C11          C12   1.395       .  A
C11         C853   1.403       .  A
C11          H16   1.084       .  S
C12         C856   1.396       .  A
C12         C764   1.464       .  S
C13          C14   1.398   1_556  A
C13         C855   1.396       .  A
C13          H17   1.084       .  S
C14          C15   1.403       .  A
C14         C755   1.473       .  S
C15          H18   1.085       .  S
N19          N20   1.322       .  A
N19          N25   1.316       .  A
N19         Mn48   2.217       .  S
N20          C27   1.356       .  A
N21          N23   1.316       .  A
N21          N22   1.320       .  A
N21         Mn37   2.203       .  S
N22          C28   1.353       .  A
N23          N24   1.320       .  A
N23         Mn48   2.195       .  S
N24          C28   1.351       .  A
N25          N26   1.316       .  A
N25         Mn37   2.180       .  S
N26          C27   1.348       .  A
C27         C675   1.474       .  S
C28         C644   1.469       .  S
N29          N35   1.314       .  A
N29          N30   1.317   1_545  A
N29         Mn59   2.187       .  S
N30          C38   1.351       .  A
N31          N32   1.319   1_545  A
N31          N33   1.315   1_545  A
N31         Mn37   2.203       .  S
N32          C39   1.354       .  A
N33          N34   1.319       .  A
N33         Mn59   2.190   1_565  S
N34          C39   1.351       .  A
N35          N36   1.317       .  A
N35         Mn37   2.186       .  S
N36          C38   1.352   1_545  A
Mn37        Cl61   2.537       .  S
C38         C804   1.472       .  S
C39         C824   1.474       .  S
N40          N41   1.323       .  A
N40          N46   1.315       .  A
N40         Mn48   2.209       .  S
N41          C49   1.355       .  A
N42          N44   1.315       .  A
N42          N43   1.317       .  A
N42         Mn60   2.188       .  S
N43          C50   1.349       .  A
N44          N45   1.320       .  A
N44         Mn48   2.195       .  S
N45          C50   1.352       .  A
N46          N47   1.316       .  A
N46         Mn60   2.185       .  S
N47          C49   1.349       .  A
Mn48        Cl61   2.554       .  S
C49         C684   1.470       .  S
C50         C704   1.464       .  S
N51          N52   1.318   1_545  A
N51          N57   1.314       .  A
N51         Mn59   2.186       .  S
N52          C62   1.351   1_565  A
N53          N54   1.319       .  A
N53          N55   1.314       .  A
N53         Mn60   2.192       .  S
N54          C63   1.352       .  A
N55          N56   1.318       .  A
N55         Mn59   2.190       .  S
N56          C63   1.351       .  A
N57          N58   1.316       .  A
N57         Mn60   2.186       .  S
N58          C62   1.351       .  A
Mn59        Cl61   2.549       .  S
Mn60        Cl61   2.528       .  S
C62         C775   1.466       .  S
C63         C744   1.470       .  S
C64          C65   1.404       .  A
C64         C912   1.403       .  A
C64         C624   1.473       .  S
C65          C66   1.402       .  A
C65          H70   1.083       .  S
C66          C67   1.402       .  A
C66         C715   1.480       .  S
C67         C911   1.400       .  A
C67          H71   1.083       .  S
C68          C69   1.403       .  A
C68         C910   1.400   1_554  A
C68         C695   1.481       .  S
C69         C907   1.403   1_554  A
C69          H72   1.083       .  S
C73          C74   1.406   1_556  A
C73         C921   1.407       .  A
C73         C615   1.485       .  S
C74          C75   1.402       .  A
C74          H79   1.084       .  S
C75          C76   1.400   1_554  A
C75         C655   1.479       .  S
C76         C920   1.400       .  A
C76          H80   1.085       .  S
C77          C78   1.403       .  A
C77         C919   1.400       .  A
C77         C664   1.480       .  S
C78         C916   1.407       .  A
C78          H81   1.083       .  S
N82          N83   1.321       .  A
N82          N88   1.315   1_655  A
N82        Mn111   2.201       .  S
N83          C90   1.355       .  A
N84          N86   1.315   1_455  A
N84          N85   1.319   1_455  A
N84        Mn100   2.195       .  S
N85          C91   1.352       .  A
N86          N87   1.320       .  A
N86        Mn111   2.202       .  S
N87          C91   1.353       .  A
N88          N89   1.316   1_455  A
N88        Mn100   2.188       .  S
N89          C90   1.350       .  A
C90         C475   1.475       .  S
C91         C455   1.477       .  S
N92          N98   1.316       .  A
N92          N93   1.320       .  A
N92        Mn122   2.199       .  S
N93         C101   1.352       .  A
N94          N95   1.318       .  A
N94          N96   1.314       .  A
N94        Mn100   2.193       .  S
N95         C102   1.351       .  A
N96          N97   1.318       .  A
N96        Mn122   2.193       .  S
N97         C102   1.354       .  A
N98          N99   1.318       .  A
N98        Mn100   2.189       .  S
N99         C101   1.350       .  A
Mn100      Cl124   2.532       .  S
C101        C564   1.466       .  S
C102        C584   1.478       .  S
N103        N104   1.320   1_455  A
N103        N109   1.315       .  A
N103       Mn111   2.200   1_455  S
N104        C112   1.354   1_655  A
N105        N107   1.314       .  A
N105        N106   1.318       .  A
N105       Mn123   2.191       .  S
N106        C113   1.352       .  A
N107        N108   1.319   1_455  A
N107       Mn111   2.197   1_455  S
N108        C113   1.353   1_655  A
N109        N110   1.318       .  A
N109       Mn123   2.188       .  S
N110        C112   1.350       .  A
Mn111      Cl124   2.554   1_655  S
C112        C495   1.473   1_455  S
C113        C504   1.476   1_455  S
N114        N115   1.322       .  A
N114        N120   1.315       .  A
N114       Mn122   2.204       .  S
N115        C125   1.354       .  A
N116        N117   1.316       .  A
N116        N118   1.315       .  A
N116       Mn123   2.186       .  S
N117        C126   1.351       .  A
N118        N119   1.321       .  A
N118       Mn122   2.200       .  S
N119        C126   1.354       .  A
N120        N121   1.316       .  A
N120       Mn123   2.183       .  S
N121        C125   1.349       .  A
Mn122      Cl124   2.553       .  S
Mn123      Cl124   2.533       .  S
C125        C544   1.468       .  S
C126        C535   1.472       .  S
C127        C128   1.406       .  A
C127        C975   1.407       .  A
C127        C435   1.481       .  S
C128        C129   1.400       .  A
C128        H133   1.082       .  S
C129        C130   1.395       .  A
C129        C555   1.468       .  S
C130        C974   1.397       .  A
C130        H134   1.086       .  S
C131        C132   1.403       .  A
C131        C973   1.397       .  A
C131        C524   1.473       .  S
C132        C970   1.407       .  A
C132        H135   1.084       .  S
C136        C141   1.407       .  A
C136        C980   1.406   1_554  A
C136        C604   1.478       .  S
C137        C138   1.401       .  A
C137        C979   1.406       .  A
C137        H142   1.084       .  S
C138        C982   1.396       .  A
C138        C515   1.474       .  S
C139        C140   1.398       .  A
C139        C981   1.396   1_554  A
C139        H143   1.085       .  S
C140        C141   1.402       .  A
C140        C484   1.476       .  S
C141        H144   1.084       .  S
C145        C146   1.408       .  A
C145        C993   1.407       .  A
C145        C415   1.483       .  S
C146        C147   1.404       .  A
C146        H151   1.085       .  S
C147        C148   1.399       .  A
C147        C464   1.478       .  S
C148        C992   1.400       .  A
C148        H152   1.084       .  S
C149        C150   1.404       .  A
C149        C991   1.400       .  A
C149        C444   1.482       .  S
C150        C988   1.407   1_554  A
C150        H153   1.084       .  S
C154        C159   1.404       .  A
C154        C998   1.406   1_554  A
C154        C735   1.478       .  S
C155        C156   1.404       .  A
C155        C997   1.406       .  A
C155        H160   1.082       .  S
C156       C1000   1.400       .  A
C156        C595   1.478       .  S
C157        C158   1.397       .  A
C157        C999   1.400   1_554  A
C157        H161   1.084       .  S
C158        C159   1.398       .  A
C158        C575   1.466       .  S
C159        H162   1.084       .  S
N163        N164   1.320       .  A
N163        N169   1.315       .  A
N163       Mn192   2.201       .  S
N164        C171   1.353       .  A
N165        N167   1.315       .  A
N165        N166   1.317       .  A
N165       Mn181   2.190       .  S
N166        C172   1.350       .  A
N167        N168   1.322       .  A
N167       Mn192   2.207       .  S
N168        C172   1.355       .  A
N169        N170   1.319       .  A
N169       Mn181   2.199       .  S
N170        C171   1.353       .  A
C171        C384   1.480       .  S
C172        C375   1.473       .  S
N173        N179   1.315       .  A
N173        N174   1.320       .  A
N173       Mn203   2.193       .  S
N174        C182   1.352       .  A
N175        N176   1.317       .  A
N175        N177   1.315       .  A
N175       Mn181   2.190       .  S
N176        C183   1.350       .  A
N177        N178   1.322       .  A
N177       Mn203   2.206       .  S
N178        C183   1.355       .  A
N179        N180   1.318       .  A
N179       Mn181   2.195       .  S
N180        C182   1.352       .  A
Mn181      Cl205   2.534       .  S
C182        C324   1.471       .  S
C183        C344   1.473       .  S
N184        N185   1.322       .  A
N184        N190   1.316       .  A
N184       Mn192   2.206       .  S
N185        C193   1.354       .  A
N186        N188   1.317       .  A
N186        N187   1.318       .  A
N186       Mn204   2.196       .  S
N187        C194   1.349       .  A
N188        N189   1.321       .  A
N188       Mn192   2.203       .  S
N189        C194   1.352       .  A
N190        N191   1.317       .  A
N190       Mn204   2.193       .  S
N191        C193   1.350       .  A
Mn192      Cl205   2.556       .  S
C193        C255   1.475       .  S
C194        C275   1.462       .  S
N195        N196   1.319       .  A
N195        N201   1.315       .  A
N195       Mn203   2.191       .  S
N196        C206   1.351       .  A
N197        N198   1.322       .  A
N197        N199   1.316       .  A
N197       Mn204   2.206       .  S
N198        C207   1.354       .  A
N199        N200   1.318       .  A
N199       Mn203   2.193       .  S
N200        C207   1.350       .  A
N201        N202   1.319       .  A
N201       Mn204   2.200       .  S
N202        C206   1.352       .  A
Mn203      Cl205   2.555       .  S
Mn204      Cl205   2.537       .  S
C206        C315   1.471       .  S
C207        C295   1.473       .  S
C208        C213   1.407       .  A
C208       C1052   1.405       .  A
C208        C635   1.484       .  S
C209        C210   1.400       .  A
C209       C1051   1.405       .  A
C209        H214   1.083       .  S
C210        C211   1.399       .  A
C210        C395   1.472       .  S
C211       C1055   1.401   1_554  A
C211        H215   1.083       .  S
C212        C213   1.403       .  A
C212       C1054   1.401       .  A
C212        C364   1.483       .  S
C213        H216   1.084       .  S
C217        C218   1.404       .  A
C217       C1065   1.406   1_554  A
C217        C424   1.478   1_554  S
C218        C219   1.400       .  A
C218        H223   1.084       .  S
C219        C220   1.398       .  A
C219        C264   1.470       .  S
C220       C1064   1.399   1_554  A
C220        H224   1.085       .  S
C221        C222   1.404       .  A
C221       C1063   1.399       .  A
C221        C244   1.475       .  S
C222       C1060   1.406       .  A
C222        H225   1.084       .  S
C226        C227   1.407       .  A
C226       C1074   1.404   1_554  A
C226        C404   1.480       .  S
C227        C228   1.404       .  A
C227        H232   1.082       .  S
C228        C229   1.401       .  A
C228        C355   1.481       .  S
C229       C1073   1.400   1_554  A
C229        H233   1.085       .  S
C230        C231   1.400       .  A
C230       C1072   1.400       .  A
C230        C335   1.474       .  S
C231       C1069   1.404       .  A
C231        H234   1.083       .  S
C235        C236   1.404       .  A
C235       C1083   1.408   1_554  A
C235        C784   1.479       .  S
C236        C237   1.402       .  A
C236        H241   1.084       .  S
C237        C238   1.399       .  A
C237        C304   1.476       .  S
C238       C1082   1.398   1_554  A
C238        H242   1.083       .  S
C239        C240   1.403       .  A
C239       C1081   1.398       .  A
C239        C284   1.477       .  S
C240       C1078   1.408       .  A
C240        H243   1.085       .  S
C244        C245   1.409       .  A
C244        C249   1.403       .  A
C245        C246   1.401       .  A
C245       Br261   1.917       .  S
C246        C247   1.402       .  A
C246        H250   1.082       .  S
C247        C248   1.406       .  A
C247        C251   1.471       .  S
C248        C249   1.394       .  A
C248       Br260   1.920       .  S
C249        H252   1.083       .  S
C251        C253   1.398       .  A
C251        C257   1.407       .  A
C253        C254   1.396       .  A
C253        H258   1.083       .  S
C254        C255   1.413       .  A
C254       Br262   1.921       .  S
C255        C256   1.404       .  A
C256        C257   1.399       .  A
C256        H259   1.083       .  S
C257       Br263   1.918       .  S
C264        C265   1.409       .  A
C264        C269   1.401       .  A
C265        C266   1.398       .  A
C265       Br281   1.918       .  S
C266        C267   1.401       .  A
C266        H270   1.084       .  S
C267        C268   1.406       .  A
C267        C271   1.469       .  S
C268        C269   1.394       .  A
C268       Br280   1.919       .  S
C269        H272   1.085       .  S
C271        C273   1.403       .  A
C271        C277   1.405       .  A
C273        C274   1.398       .  A
C273        H278   1.082       .  S
C274        C275   1.405       .  A
C274       Br282   1.917       .  S
C275        C276   1.402       .  A
C276        C277   1.396       .  A
C276        H279   1.082       .  S
C277       Br283   1.918       .  S
C284        C285   1.408       .  A
C284        C289   1.403       .  A
C285        C286   1.396       .  A
C285       Br301   1.914       .  S
C286        C287   1.403       .  A
C286        H290   1.083       .  S
C287        C288   1.411       .  A
C287        C291   1.482       .  S
C288        C289   1.398       .  A
C288       Br300   1.920       .  S
C289        H292   1.084       .  S
C291        C293   1.402       .  A
C291        C297   1.413       .  A
C293        C294   1.396       .  A
C293        H298   1.083       .  S
C294        C295   1.411       .  A
C294       Br302   1.920       .  S
C295        C296   1.402       .  A
C296        C297   1.399       .  A
C296        H299   1.083       .  S
C297       Br303   1.921       .  S
C304        C305   1.410       .  A
C304        C309   1.405       .  A
C305        C306   1.396       .  A
C305       Br321   1.920       .  S
C306        C307   1.402       .  A
C306        H310   1.084       .  S
C307        C308   1.407       .  A
C307        C311   1.474       .  S
C308        C309   1.397       .  A
C308       Br320   1.919       .  S
C309        H312   1.084       .  S
C311        C313   1.402       .  A
C311        C317   1.407       .  A
C313        C314   1.396       .  A
C313        H318   1.084       .  S
C314        C315   1.409       .  A
C314       Br322   1.921       .  S
C315        C316   1.405       .  A
C316        C317   1.398       .  A
C316        H319   1.084       .  S
C317       Br323   1.919       .  S
C324        C325   1.411       .  A
C324        C329   1.404       .  A
C325        C326   1.400       .  A
C325       Br341   1.921       .  S
C326        C327   1.402       .  A
C326        H330   1.083       .  S
C327        C328   1.404       .  A
C327        C331   1.470       .  S
C328        C329   1.395       .  A
C328       Br340   1.918       .  S
C329        H332   1.083       .  S
C331        C333   1.399       .  A
C331        C337   1.406       .  A
C333        C334   1.394       .  A
C333        H338   1.084       .  S
C334        C335   1.409       .  A
C334       Br342   1.920       .  S
C335        C336   1.404       .  A
C336        C337   1.400       .  A
C336        H339   1.085       .  S
C337       Br343   1.918       .  S
C344        C345   1.410       .  A
C344        C349   1.404       .  A
C345        C346   1.396       .  A
C345       Br361   1.922       .  S
C346        C347   1.402       .  A
C346        H350   1.085       .  S
C347        C348   1.410       .  A
C347        C351   1.481       .  S
C348        C349   1.401       .  A
C348       Br360   1.919       .  S
C349        H352   1.085       .  S
C351        C353   1.403       .  A
C351        C357   1.410       .  A
C353        C354   1.398       .  A
C353        H358   1.085       .  S
C354        C355   1.411       .  A
C354       Br362   1.920       .  S
C355        C356   1.404       .  A
C356        C357   1.398       .  A
C356        H359   1.086       .  S
C357       Br363   1.920       .  S
C364        C365   1.412       .  A
C364        C369   1.406       .  A
C365        C366   1.399       .  A
C365       Br381   1.920       .  S
C366        C367   1.402       .  A
C366        H370   1.081       .  S
C367        C368   1.407       .  A
C367        C371   1.477       .  S
C368        C369   1.396       .  A
C368       Br380   1.920       .  S
C369        H372   1.081       .  S
C371        C373   1.402       .  A
C371        C377   1.407       .  A
C373        C374   1.396       .  A
C373        H378   1.085       .  S
C374        C375   1.411       .  A
C374       Br382   1.922       .  S
C375        C376   1.404       .  A
C376        C377   1.400       .  A
C376        H379   1.084       .  S
C377       Br383   1.918       .  S
C384        C385   1.414       .  A
C384        C389   1.406       .  A
C385        C386   1.399       .  A
C385       Br401   1.919       .  S
C386        C387   1.400       .  A
C386        H390   1.085       .  S
C387        C388   1.404       .  A
C387        C391   1.474       .  S
C388        C389   1.397       .  A
C388       Br400   1.919       .  S
C389        H392   1.085       .  S
C391        C393   1.401       .  A
C391        C397   1.408       .  A
C393        C394   1.395       .  A
C393        H398   1.083       .  S
C394        C395   1.408       .  A
C394       Br402   1.920       .  S
C395        C396   1.403       .  A
C396        C397   1.401       .  A
C396        H399   1.083       .  S
C397       Br403   1.918       .  S
C404        C405   1.412       .  A
C404       C1252   1.404   1_554  A
C405        C406   1.399       .  A
C405       Br421   1.921       .  S
C406        C407   1.401       .  A
C406        H410   1.084       .  S
C407       C1251   1.407   1_554  A
C407        C411   1.476       .  S
C408        C409   1.398       .  A
C408       C1250   1.407       .  A
C408       Br420   1.918       .  S
C409       C1247   1.404       .  A
C409        H412   1.084       .  S
C411        C417   1.407       .  A
C411       C1256   1.401   1_554  A
C413        C414   1.400       .  A
C413       C1254   1.401       .  A
C413        H418   1.083       .  S
C414        C415   1.412       .  A
C414       Br422   1.916       .  S
C415       C1259   1.405       .  A
C416        C417   1.398       .  A
C416       C1258   1.405   1_554  A
C416        H419   1.084       .  S
C417       Br423   1.919       .  S
C424        C429   1.405   1_556  A
C424       C1268   1.409       .  A
C425        C426   1.398       .  A
C425       C1267   1.409       .  A
C425       Br441   1.919       .  S
C426       C1270   1.403       .  A
C426        H430   1.083       .  S
C427        C428   1.408   1_556  A
C427       C1269   1.403       .  A
C427       C1274   1.477   1_556  S
C428        C429   1.399       .  A
C428       Br440   1.919       .  S
C429        H432   1.083       .  S
C431        C437   1.408       .  A
C431       C1276   1.401       .  A
C431       C1270   1.477       .  S
C433        C434   1.397       .  A
C433       C1274   1.401       .  A
C433        H438   1.084       .  S
C434       C1278   1.412       .  A
C434       Br442   1.920       .  S
C435        C436   1.405       .  A
C435       C1277   1.412       .  A
C436        C437   1.399       .  A
C436        H439   1.084       .  S
C437       Br443   1.919       .  S
C444        C445   1.412       .  A
C444        C449   1.405       .  A
C445        C446   1.400       .  A
C445       Br461   1.920       .  S
C446        C447   1.403       .  A
C446        H450   1.084       .  S
C447        C448   1.407       .  A
C447        C451   1.478       .  S
C448        C449   1.396       .  A
C448       Br460   1.920       .  S
C449        H452   1.084       .  S
C451        C453   1.402       .  A
C451        C457   1.408       .  A
C453        C454   1.399       .  A
C453        H458   1.081       .  S
C454        C455   1.413       .  A
C454       Br462   1.920       .  S
C455        C456   1.404       .  A
C456        C457   1.398       .  A
C456        H459   1.082       .  S
C457       Br463   1.920       .  S
C464        C465   1.410       .  A
C464        C469   1.404       .  A
C465        C466   1.398       .  A
C465       Br481   1.915       .  S
C466        C467   1.402       .  A
C466        H470   1.083       .  S
C467        C468   1.408       .  A
C467        C471   1.476       .  S
C468        C469   1.397       .  A
C468       Br480   1.920       .  S
C469        H472   1.083       .  S
C471        C473   1.399       .  A
C471        C477   1.409       .  A
C473        C474   1.395       .  A
C473        H478   1.082       .  S
C474        C475   1.414       .  A
C474       Br482   1.921       .  S
C475        C476   1.404       .  A
C476        C477   1.399       .  A
C476        H479   1.082       .  S
C477       Br483   1.919       .  S
C484        C485   1.409       .  A
C484        C489   1.404       .  A
C485        C486   1.401       .  A
C485       Br501   1.918       .  S
C486        C487   1.404       .  A
C486        H490   1.082       .  S
C487        C488   1.405       .  A
C487        C491   1.472       .  S
C488        C489   1.392       .  A
C488       Br500   1.921       .  S
C489        H492   1.083       .  S
C491        C493   1.401   1_655  A
C491        C497   1.406       .  A
C493        C494   1.397       .  A
C493        H498   1.084       .  S
C494        C495   1.413   1_455  A
C494       Br502   1.922       .  S
C495        C496   1.404       .  A
C496        C497   1.396       .  A
C496        H499   1.084       .  S
C497       Br503   1.919       .  S
C504        C505   1.414       .  A
C504        C509   1.405   1_655  A
C505        C506   1.397       .  A
C505       Br521   1.921       .  S
C506        C507   1.401       .  A
C506        H510   1.083       .  S
C507        C508   1.406   1_655  A
C507        C511   1.474       .  S
C508        C509   1.396       .  A
C508       Br520   1.920       .  S
C509        H512   1.083       .  S
C511        C513   1.404       .  A
C511        C517   1.406       .  A
C513        C514   1.399       .  A
C513        H518   1.083       .  S
C514        C515   1.407       .  A
C514       Br522   1.918       .  S
C515        C516   1.404       .  A
C516        C517   1.393       .  A
C516        H519   1.084       .  S
C517       Br523   1.920       .  S
C524        C525   1.409       .  A
C524        C529   1.403       .  A
C525        C526   1.399       .  A
C525       Br541   1.918       .  S
C526        C527   1.401       .  A
C526        H530   1.084       .  S
C527        C528   1.406       .  A
C527        C531   1.469       .  S
C528        C529   1.394       .  A
C528       Br540   1.921       .  S
C529        H532   1.084       .  S
C531        C533   1.402       .  A
C531        C537   1.403       .  A
C533        C534   1.400       .  A
C533        H538   1.085       .  S
C534        C535   1.412       .  A
C534       Br542   1.920       .  S
C535        C536   1.405       .  A
C536        C537   1.393       .  A
C536        H539   1.085       .  S
C537       Br543   1.919       .  S
C544        C545   1.408       .  A
C544        C549   1.403       .  A
C545        C546   1.399       .  A
C545       Br561   1.919       .  S
C546        C547   1.403       .  A
C546        H550   1.083       .  S
C547        C548   1.404       .  A
C547        C551   1.469       .  S
C548        C549   1.394       .  A
C548       Br560   1.919       .  S
C549        H552   1.083       .  S
C551        C553   1.401       .  A
C551        C557   1.406       .  A
C553        C554   1.394       .  A
C553        H558   1.086       .  S
C554        C555   1.407       .  A
C554       Br562   1.920       .  S
C555        C556   1.402       .  A
C556        C557   1.399       .  A
C556        H559   1.086       .  S
C557       Br563   1.917       .  S
C564        C565   1.409       .  A
C564        C569   1.401       .  A
C565        C566   1.397       .  A
C565       Br581   1.920       .  S
C566        C567   1.403       .  A
C566        H570   1.083       .  S
C567        C568   1.409       .  A
C567        C571   1.474       .  S
C568        C569   1.396       .  A
C568       Br580   1.920       .  S
C569        H572   1.083       .  S
C571        C573   1.400       .  A
C571        C577   1.411       .  A
C573        C574   1.392       .  A
C573        H578   1.083       .  S
C574        C575   1.408       .  A
C574       Br582   1.921       .  S
C575        C576   1.401       .  A
C576        C577   1.400       .  A
C576        H579   1.083       .  S
C577       Br583   1.919       .  S
C584        C585   1.416       .  A
C584        C589   1.406       .  A
C585        C586   1.397       .  A
C585       Br601   1.922       .  S
C586        C587   1.399       .  A
C586        H590   1.085       .  S
C587        C588   1.404       .  A
C587        C591   1.470       .  S
C588        C589   1.395       .  A
C588       Br600   1.919       .  S
C589        H592   1.084       .  S
C591        C593   1.397       .  A
C591        C597   1.406       .  A
C593        C594   1.393       .  A
C593        H598   1.085       .  S
C594        C595   1.415       .  A
C594       Br602   1.920       .  S
C595        C596   1.405       .  A
C596        C597   1.399       .  A
C596        H599   1.085       .  S
C597       Br603   1.917       .  S
C604        C609   1.403       .  A
C604       C1448   1.411   1_554  A
C605        C606   1.401       .  A
C605       C1447   1.411       .  A
C605       Br621   1.918       .  S
C606       C1450   1.401       .  A
C606        H610   1.082       .  S
C607        C608   1.407   1_556  A
C607       C1449   1.401       .  A
C607        C611   1.472       .  S
C608        C609   1.395       .  A
C608       Br620   1.920       .  S
C609        H612   1.083       .  S
C611        C613   1.401   1_556  A
C611       C1460   1.404       .  A
C613        C614   1.401       .  A
C613        H618   1.083       .  S
C614        C615   1.414   1_554  A
C614       Br622   1.920       .  S
C615       C1459   1.406       .  A
C616        C617   1.393       .  A
C616       C1458   1.406       .  A
C616        H619   1.081       .  S
C617       C1454   1.404       .  A
C617       Br623   1.920       .  S
C624        C625   1.408       .  A
C624       C1472   1.402       .  A
C625        C626   1.395       .  A
C625       Br641   1.917       .  S
C626        C627   1.401       .  A
C626        H630   1.084       .  S
C627       C1471   1.409       .  A
C627        C631   1.475       .  S
C628        C629   1.399       .  A
C628       C1470   1.409   1_554  A
C628       Br640   1.919       .  S
C629       C1467   1.402   1_554  A
C629        H632   1.084       .  S
C631        C637   1.406       .  A
C631       C1476   1.402       .  A
C633        C634   1.399       .  A
C633       C1474   1.402       .  A
C633        H638   1.083       .  S
C634       C1478   1.412       .  A
C634       Br642   1.920       .  S
C635        C636   1.407       .  A
C635       C1477   1.412       .  A
C636        C637   1.396       .  A
C636        H639   1.083       .  S
C637       Br643   1.920       .  S
C644        C645   1.408       .  A
C644        C649   1.401       .  A
C645        C646   1.398       .  A
C645       Br661   1.919       .  S
C646        C647   1.402       .  A
C646        H650   1.082       .  S
C647        C648   1.410       .  A
C647        C651   1.476       .  S
C648        C649   1.398       .  A
C648       Br660   1.920       .  S
C649        H652   1.082       .  S
C651        C653   1.402       .  A
C651        C657   1.408       .  A
C653        C654   1.397       .  A
C653        H658   1.082       .  S
C654        C655   1.410       .  A
C654       Br662   1.920       .  S
C655        C656   1.405       .  A
C656        C657   1.398       .  A
C656        H659   1.082       .  S
C657       Br663   1.919       .  S
C664        C665   1.413       .  A
C664        C669   1.406       .  A
C665        C666   1.394       .  A
C665       Br681   1.919       .  S
C666        C667   1.400       .  A
C666        H670   1.085       .  S
C667        C668   1.408       .  A
C667        C671   1.477       .  S
C668        C669   1.399       .  A
C668       Br680   1.919       .  S
C669        H672   1.084       .  S
C671        C673   1.400       .  A
C671        C677   1.410       .  A
C673        C674   1.397       .  A
C673        H678   1.082       .  S
C674        C675   1.414       .  A
C674       Br682   1.921       .  S
C675        C676   1.402       .  A
C676        C677   1.397       .  A
C676        H679   1.082       .  S
C677       Br683   1.920       .  S
C684        C685   1.410       .  A
C684        C689   1.402       .  A
C685        C686   1.401       .  A
C685       Br701   1.918       .  S
C686        C687   1.403       .  A
C686        H690   1.082       .  S
C687        C688   1.407       .  A
C687        C691   1.474       .  S
C688        C689   1.394       .  A
C688       Br700   1.920       .  S
C689        H692   1.082       .  S
C691        C693   1.399       .  A
C691        C697   1.408       .  A
C693        C694   1.398       .  A
C693        H698   1.083       .  S
C694        C695   1.414       .  A
C694       Br702   1.921       .  S
C695        C696   1.404       .  A
C696        C697   1.397       .  A
C696        H699   1.082       .  S
C697       Br703   1.919       .  S
C704        C705   1.409       .  A
C704        C709   1.400       .  A
C705        C706   1.398       .  A
C705       Br721   1.920       .  S
C706        C707   1.402       .  A
C706        H710   1.081       .  S
C707        C708   1.408       .  A
C707        C711   1.472       .  S
C708        C709   1.394       .  A
C708       Br720   1.920       .  S
C709        H712   1.082       .  S
C711        C713   1.402       .  A
C711        C717   1.405       .  A
C713        C714   1.397       .  A
C713        H718   1.084       .  S
C714        C715   1.412       .  A
C714       Br722   1.916       .  S
C715        C716   1.406       .  A
C716        C717   1.394       .  A
C716        H719   1.084       .  S
C717       Br723   1.919       .  S
C724        C725   1.410   1_556  A
C724       C1572   1.404       .  A
C725        C726   1.400       .  A
C725       Br741   1.918       .  S
C726        C727   1.402   1_554  A
C726        H730   1.083       .  S
C727       C1571   1.405       .  A
C727        C731   1.470       .  S
C728        C729   1.392       .  A
C728       C1570   1.405       .  A
C728       Br740   1.920       .  S
C729       C1567   1.404       .  A
C729        H732   1.084       .  S
C731        C737   1.405   1_556  A
C731       C1576   1.401       .  A
C733        C734   1.400       .  A
C733       C1574   1.401       .  A
C733        H738   1.083       .  S
C734       C1578   1.411       .  A
C734       Br742   1.919       .  S
C735        C736   1.405       .  A
C735       C1577   1.411   1_554  A
C736        C737   1.393       .  A
C736        H739   1.083       .  S
C737       Br743   1.920       .  S
C744        C745   1.411   1_545  A
C744        C749   1.404       .  A
C745        C746   1.395       .  A
C745       Br761   1.921       .  S
C746        C747   1.400       .  A
C746        H750   1.081       .  S
C747        C748   1.406   1_565  A
C747        C751   1.471       .  S
C748        C749   1.398       .  A
C748       Br760   1.918       .  S
C749        H752   1.082       .  S
C751        C753   1.403       .  A
C751        C757   1.406       .  A
C753        C754   1.400       .  A
C753        H758   1.083   1_565  S
C754        C755   1.408       .  A
C754       Br762   1.917       .  S
C755        C756   1.403       .  A
C756        C757   1.394       .  A
C756        H759   1.084       .  S
C757       Br763   1.920       .  S
C764        C765   1.407       .  A
C764        C769   1.400       .  A
C765        C766   1.391       .  A
C765       Br781   1.920       .  S
C766        C767   1.399       .  A
C766        H770   1.085       .  S
C767        C768   1.408       .  A
C767        C771   1.466       .  S
C768        C769   1.397       .  A
C768       Br780   1.919   1_565  S
C769        H772   1.085       .  S
C771        C773   1.400       .  A
C771        C777   1.406   1_565  A
C773        C774   1.396       .  A
C773        H778   1.081       .  S
C774        C775   1.411   1_565  A
C774       Br782   1.920       .  S
C775        C776   1.402       .  A
C776        C777   1.392       .  A
C776        H779   1.082       .  S
C777       Br783   1.920       .  S
C784        C789   1.405       .  A
C784       C1628   1.410   1_554  A
C785        C786   1.394       .  A
C785       C1627   1.410       .  A
C785       Br801   1.914       .  S
C786       C1630   1.399       .  A
C786        H790   1.083       .  S
C787        C788   1.408       .  A
C787       C1629   1.399   1_554  A
C787        C791   1.473       .  S
C788        C789   1.400       .  A
C788       Br800   1.919       .  S
C789        H792   1.083       .  S
C791        C793   1.400       .  A
C791       C1640   1.408   1_554  A
C793        C794   1.395       .  A
C793        H798   1.083       .  S
C794        C795   1.411   1_554  A
C794       Br802   1.922       .  S
C795       C1639   1.403       .  A
C796        C797   1.398       .  A
C796       C1638   1.403       .  A
C796        H799   1.083       .  S
C797       C1634   1.408       .  A
C797       Br803   1.919       .  S
C804        C805   1.413       .  A
C804        C809   1.405       .  A
C805        C806   1.395       .  A
C805       Br821   1.923       .  S
C806        C807   1.401       .  A
C806        H810   1.085       .  S
C807        C808   1.404       .  A
C807        C811   1.467       .  S
C808        C809   1.392       .  A
C808       Br820   1.920       .  S
C809        H812   1.084       .  S
C811        C813   1.400       .  A
C811        C817   1.408       .  A
C813        C814   1.391       .  A
C813        H818   1.085       .  S
C814        C815   1.408       .  A
C814       Br822   1.921       .  S
C815        C816   1.402       .  A
C816        C817   1.396       .  A
C816        H819   1.085       .  S
C817       Br823   1.919       .  S
C824        C825   1.413       .  A
C824        C829   1.403       .  A
C825        C826   1.400       .  A
C825       Br841   1.921       .  S
C826        C827   1.401       .  A
C826        H830   1.083       .  S
C827        C828   1.405       .  A
C827        C831   1.472       .  S
C828        C829   1.395       .  A
C828       Br840   1.919       .  S
C829        H832   1.083       .  S
C831        C833   1.403       .  A
C831        C837   1.405       .  A
C833        C834   1.402       .  A
C833        H838   1.081       .  S
C834        C835   1.411       .  A
C834       Br842   1.919       .  S
C835        C836   1.405       .  A
C836        C837   1.391       .  A
C836        H839   1.081       .  S
C837       Br843   1.921       .  S
C844        C849   1.402       .  A
C844       C1638   1.476       .  S
C845        C846   1.406       .  A
C845        H850   1.083       .  S
C846        C847   1.398       .  A
C846       C1678   1.479       .  S
C847        H851   1.086       .  S
C848        C849   1.394       .  A
C848       C1658   1.467       .  S
C849        H852   1.084       .  S
C853        C858   1.407       .  A
C853       C1567   1.477       .  S
C854        C855   1.395       .  A
C854        H859   1.084       .  S
C855       C1607   1.464       .  S
C856        C857   1.398       .  A
C856        H860   1.084       .  S
C857        C858   1.403       .  A
C857       C1598   1.473       .  S
C858        H861   1.085       .  S
N862        N863   1.322       .  A
N862        N868   1.316       .  A
N862       Mn891   2.217       .  S
N863        C870   1.356       .  A
N864        N866   1.316       .  A
N864        N865   1.320       .  A
N864       Mn880   2.203       .  S
N865        C871   1.353       .  A
N866        N867   1.320       .  A
N866       Mn891   2.195       .  S
N867        C871   1.351       .  A
N868        N869   1.316       .  A
N868       Mn880   2.180       .  S
N869        C870   1.348       .  A
C870       C1518   1.474       .  S
C871       C1487   1.469       .  S
N872        N878   1.314       .  A
N872        N873   1.317   1_545  A
N872       Mn902   2.187       .  S
N873        C881   1.351       .  A
N874        N875   1.319   1_545  A
N874        N876   1.315   1_545  A
N874       Mn880   2.203       .  S
N875        C882   1.354       .  A
N876        N877   1.319       .  A
N876       Mn902   2.190   1_565  S
N877        C882   1.351       .  A
N878        N879   1.317       .  A
N878       Mn880   2.186       .  S
N879        C881   1.352   1_545  A
Mn880      Cl904   2.537       .  S
C881       C1647   1.472       .  S
C882       C1667   1.474       .  S
N883        N884   1.323       .  A
N883        N889   1.315       .  A
N883       Mn891   2.209       .  S
N884        C892   1.355       .  A
N885        N887   1.315       .  A
N885        N886   1.317       .  A
N885       Mn903   2.188       .  S
N886        C893   1.349       .  A
N887        N888   1.320       .  A
N887       Mn891   2.195       .  S
N888        C893   1.352       .  A
N889        N890   1.316       .  A
N889       Mn903   2.185       .  S
N890        C892   1.349       .  A
Mn891      Cl904   2.554       .  S
C892       C1527   1.470       .  S
C893       C1547   1.464       .  S
N894        N895   1.318   1_545  A
N894        N900   1.314       .  A
N894       Mn902   2.186       .  S
N895        C905   1.351   1_565  A
N896        N897   1.319       .  A
N896        N898   1.314       .  A
N896       Mn903   2.192       .  S
N897        C906   1.352       .  A
N898        N899   1.318       .  A
N898       Mn902   2.190       .  S
N899        C906   1.351       .  A
N900        N901   1.316       .  A
N900       Mn903   2.186       .  S
N901        C905   1.351       .  A
Mn902      Cl904   2.549       .  S
Mn903      Cl904   2.528       .  S
C905       C1618   1.466       .  S
C906       C1587   1.470       .  S
C907        C908   1.404       .  A
C907       C1467   1.473       .  S
C908        C909   1.402       .  A
C908        H913   1.083       .  S
C909        C910   1.402       .  A
C909       C1558   1.480       .  S
C910        H914   1.083       .  S
C911        C912   1.403       .  A
C911       C1538   1.481       .  S
C912        H915   1.083       .  S
C916        C917   1.406       .  A
C916       C1458   1.485       .  S
C917        C918   1.402       .  A
C917        H922   1.084       .  S
C918        C919   1.400       .  A
C918       C1498   1.479       .  S
C919        H923   1.085       .  S
C920        C921   1.403       .  A
C920       C1507   1.480       .  S
C921        H924   1.083       .  S
N925        N926   1.321       .  A
N925        N931   1.315   1_655  A
N925       Mn954   2.201       .  S
N926        C933   1.355       .  A
N927        N929   1.315   1_455  A
N927        N928   1.319   1_455  A
N927       Mn943   2.195       .  S
N928        C934   1.352       .  A
N929        N930   1.320       .  A
N929       Mn954   2.202       .  S
N930        C934   1.353       .  A
N931        N932   1.316   1_455  A
N931       Mn943   2.188       .  S
N932        C933   1.350       .  A
C933       C1318   1.475       .  S
C934       C1298   1.477       .  S
N935        N941   1.316       .  A
N935        N936   1.320       .  A
N935       Mn965   2.199       .  S
N936        C944   1.352       .  A
N937        N938   1.318       .  A
N937        N939   1.314       .  A
N937       Mn943   2.193       .  S
N938        C945   1.351       .  A
N939        N940   1.318       .  A
N939       Mn965   2.193       .  S
N940        C945   1.354       .  A
N941        N942   1.318       .  A
N941       Mn943   2.189       .  S
N942        C944   1.350       .  A
Mn943      Cl967   2.532       .  S
C944       C1407   1.466       .  S
C945       C1427   1.478       .  S
N946        N947   1.320   1_455  A
N946        N952   1.315       .  A
N946       Mn954   2.200   1_455  S
N947        C955   1.354   1_655  A
N948        N950   1.314       .  A
N948        N949   1.318       .  A
N948       Mn966   2.191       .  S
N949        C956   1.352       .  A
N950        N951   1.319   1_455  A
N950       Mn954   2.197   1_455  S
N951        C956   1.353   1_655  A
N952        N953   1.318       .  A
N952       Mn966   2.188       .  S
N953        C955   1.350       .  A
Mn954      Cl967   2.554   1_655  S
C955       C1338   1.473   1_455  S
C956       C1347   1.476   1_455  S
N957        N958   1.322       .  A
N957        N963   1.315       .  A
N957       Mn965   2.204       .  S
N958        C968   1.354       .  A
N959        N960   1.316       .  A
N959        N961   1.315       .  A
N959       Mn966   2.186       .  S
N960        C969   1.351       .  A
N961        N962   1.321       .  A
N961       Mn965   2.200       .  S
N962        C969   1.354       .  A
N963        N964   1.316       .  A
N963       Mn966   2.183       .  S
N964        C968   1.349       .  A
Mn965      Cl967   2.553       .  S
Mn966      Cl967   2.533       .  S
C968       C1387   1.468       .  S
C969       C1378   1.472       .  S
C970        C971   1.406   1_554  A
C970       C1278   1.481       .  S
C971        C972   1.400       .  A
C971        H976   1.082       .  S
C972        C973   1.395   1_556  A
C972       C1398   1.468       .  S
C973        H977   1.086       .  S
C974        C975   1.403       .  A
C974       C1367   1.473       .  S
C975        H978   1.084       .  S
C979        C984   1.407       .  A
C979       C1447   1.478       .  S
C980        C981   1.401       .  A
C980        H985   1.084       .  S
C981       C1358   1.474       .  S
C982        C983   1.398       .  A
C982        H986   1.085       .  S
C983        C984   1.402       .  A
C983       C1327   1.476       .  S
C984        H987   1.084       .  S
C988        C989   1.408       .  A
C988       C1258   1.483       .  S
C989        C990   1.404       .  A
C989        H994   1.085       .  S
C990        C991   1.399   1_556  A
C990       C1307   1.478       .  S
C991        H995   1.084       .  S
C992        C993   1.404       .  A
C992       C1287   1.482       .  S
C993        H996   1.084       .  S
C997       C1002   1.404       .  A
C997       C1578   1.478       .  S
C998        C999   1.404       .  A
C998       H1003   1.082       .  S
C999       C1438   1.478       .  S
C1000      C1001   1.397       .  A
C1000      H1004   1.084       .  S
C1001      C1002   1.398       .  A
C1001      C1418   1.466       .  S
C1002      H1005   1.084       .  S
N1006      N1007   1.320       .  A
N1006      N1012   1.315       .  A
N1006     Mn1035   2.201       .  S
N1007      C1014   1.353       .  A
N1008      N1010   1.315       .  A
N1008      N1009   1.317       .  A
N1008     Mn1024   2.190       .  S
N1009      C1015   1.350       .  A
N1010      N1011   1.322       .  A
N1010     Mn1035   2.207       .  S
N1011      C1015   1.355       .  A
N1012      N1013   1.319       .  A
N1012     Mn1024   2.199       .  S
N1013      C1014   1.353       .  A
C1014      C1227   1.480       .  S
C1015      C1218   1.473       .  S
N1016      N1022   1.315       .  A
N1016      N1017   1.320       .  A
N1016     Mn1046   2.193       .  S
N1017      C1025   1.352       .  A
N1018      N1019   1.317       .  A
N1018      N1020   1.315       .  A
N1018     Mn1024   2.190       .  S
N1019      C1026   1.350       .  A
N1020      N1021   1.322       .  A
N1020     Mn1046   2.206       .  S
N1021      C1026   1.355       .  A
N1022      N1023   1.318       .  A
N1022     Mn1024   2.195       .  S
N1023      C1025   1.352       .  A
Mn1024    Cl1048   2.534       .  S
C1025      C1167   1.471       .  S
C1026      C1187   1.473       .  S
N1027      N1028   1.322       .  A
N1027      N1033   1.316       .  A
N1027     Mn1035   2.206       .  S
N1028      C1036   1.354       .  A
N1029      N1031   1.317       .  A
N1029      N1030   1.318       .  A
N1029     Mn1047   2.196       .  S
N1030      C1037   1.349       .  A
N1031      N1032   1.321       .  A
N1031     Mn1035   2.203       .  S
N1032      C1037   1.352       .  A
N1033      N1034   1.317       .  A
N1033     Mn1047   2.193       .  S
N1034      C1036   1.350       .  A
Mn1035    Cl1048   2.556       .  S
C1036      C1098   1.475       .  S
C1037      C1118   1.462       .  S
N1038      N1039   1.319       .  A
N1038      N1044   1.315       .  A
N1038     Mn1046   2.191       .  S
N1039      C1049   1.351       .  A
N1040      N1041   1.322       .  A
N1040      N1042   1.316       .  A
N1040     Mn1047   2.206       .  S
N1041      C1050   1.354       .  A
N1042      N1043   1.318       .  A
N1042     Mn1046   2.193       .  S
N1043      C1050   1.350       .  A
N1044      N1045   1.319       .  A
N1044     Mn1047   2.200       .  S
N1045      C1049   1.352       .  A
Mn1046    Cl1048   2.555       .  S
Mn1047    Cl1048   2.537       .  S
C1049      C1158   1.471       .  S
C1050      C1138   1.473       .  S
C1051      C1056   1.407   1_554  A
C1051      C1478   1.484       .  S
C1052      C1053   1.400       .  A
C1052      H1057   1.083       .  S
C1053      C1054   1.399       .  A
C1053      C1238   1.472       .  S
C1054      H1058   1.083       .  S
C1055      C1056   1.403       .  A
C1055      C1207   1.483       .  S
C1056      H1059   1.084       .  S
C1060      C1061   1.404       .  A
C1060      C1267   1.478       .  S
C1061      C1062   1.400       .  A
C1061      H1066   1.084       .  S
C1062      C1063   1.398       .  A
C1062      C1107   1.470       .  S
C1063      H1067   1.085       .  S
C1064      C1065   1.404       .  A
C1064      C1087   1.475       .  S
C1065      H1068   1.084       .  S
C1069      C1070   1.407       .  A
C1069      C1247   1.480       .  S
C1070      C1071   1.404       .  A
C1070      H1075   1.082       .  S
C1071      C1072   1.401       .  A
C1071      C1198   1.481       .  S
C1072      H1076   1.085       .  S
C1073      C1074   1.400       .  A
C1073      C1178   1.474       .  S
C1074      H1077   1.083       .  S
C1078      C1079   1.404       .  A
C1078      C1627   1.479       .  S
C1079      C1080   1.402       .  A
C1079      H1084   1.084       .  S
C1080      C1081   1.399       .  A
C1080      C1147   1.476       .  S
C1081      H1085   1.083       .  S
C1082      C1083   1.403       .  A
C1082      C1127   1.477       .  S
C1083      H1086   1.085       .  S
C1087      C1088   1.409       .  A
C1087      C1092   1.403       .  A
C1088      C1089   1.401       .  A
C1088     Br1104   1.917       .  S
C1089      C1090   1.402       .  A
C1089      H1093   1.082       .  S
C1090      C1091   1.406       .  A
C1090      C1094   1.471       .  S
C1091      C1092   1.394       .  A
C1091     Br1103   1.920       .  S
C1092      H1095   1.083       .  S
C1094      C1096   1.398       .  A
C1094      C1100   1.407       .  A
C1096      C1097   1.396       .  A
C1096      H1101   1.083       .  S
C1097      C1098   1.413       .  A
C1097     Br1105   1.921       .  S
C1098      C1099   1.404       .  A
C1099      C1100   1.399       .  A
C1099      H1102   1.083       .  S
C1100     Br1106   1.918       .  S
C1107      C1108   1.409       .  A
C1107      C1112   1.401       .  A
C1108      C1109   1.398       .  A
C1108     Br1124   1.918       .  S
C1109      C1110   1.401       .  A
C1109      H1113   1.084       .  S
C1110      C1111   1.406       .  A
C1110      C1114   1.469       .  S
C1111      C1112   1.394       .  A
C1111     Br1123   1.919       .  S
C1112      H1115   1.085       .  S
C1114      C1116   1.403       .  A
C1114      C1120   1.405       .  A
C1116      C1117   1.398       .  A
C1116      H1121   1.082       .  S
C1117      C1118   1.405       .  A
C1117     Br1125   1.917       .  S
C1118      C1119   1.402       .  A
C1119      C1120   1.396       .  A
C1119      H1122   1.082       .  S
C1120     Br1126   1.918       .  S
C1127      C1128   1.408       .  A
C1127      C1132   1.403       .  A
C1128      C1129   1.396       .  A
C1128     Br1144   1.914       .  S
C1129      C1130   1.403       .  A
C1129      H1133   1.083       .  S
C1130      C1131   1.411       .  A
C1130      C1134   1.482       .  S
C1131      C1132   1.398       .  A
C1131     Br1143   1.920       .  S
C1132      H1135   1.084       .  S
C1134      C1136   1.402       .  A
C1134      C1140   1.413       .  A
C1136      C1137   1.396       .  A
C1136      H1141   1.083       .  S
C1137      C1138   1.411       .  A
C1137     Br1145   1.920       .  S
C1138      C1139   1.402       .  A
C1139      C1140   1.399       .  A
C1139      H1142   1.083       .  S
C1140     Br1146   1.921       .  S
C1147      C1148   1.410       .  A
C1147      C1152   1.405       .  A
C1148      C1149   1.396       .  A
C1148     Br1164   1.920       .  S
C1149      C1150   1.402       .  A
C1149      H1153   1.084       .  S
C1150      C1151   1.407       .  A
C1150      C1154   1.474       .  S
C1151      C1152   1.397       .  A
C1151     Br1163   1.919       .  S
C1152      H1155   1.084       .  S
C1154      C1156   1.402       .  A
C1154      C1160   1.407       .  A
C1156      C1157   1.396       .  A
C1156      H1161   1.084       .  S
C1157      C1158   1.409       .  A
C1157     Br1165   1.921       .  S
C1158      C1159   1.405       .  A
C1159      C1160   1.398       .  A
C1159      H1162   1.084       .  S
C1160     Br1166   1.919       .  S
C1167      C1168   1.411       .  A
C1167      C1172   1.404       .  A
C1168      C1169   1.400       .  A
C1168     Br1184   1.921       .  S
C1169      C1170   1.402       .  A
C1169      H1173   1.083       .  S
C1170      C1171   1.404       .  A
C1170      C1174   1.470       .  S
C1171      C1172   1.395       .  A
C1171     Br1183   1.918       .  S
C1172      H1175   1.083       .  S
C1174      C1176   1.399       .  A
C1174      C1180   1.406       .  A
C1176      C1177   1.394       .  A
C1176      H1181   1.084       .  S
C1177      C1178   1.409       .  A
C1177     Br1185   1.920       .  S
C1178      C1179   1.404       .  A
C1179      C1180   1.400       .  A
C1179      H1182   1.085       .  S
C1180     Br1186   1.918       .  S
C1187      C1188   1.410       .  A
C1187      C1192   1.404       .  A
C1188      C1189   1.396       .  A
C1188     Br1204   1.922       .  S
C1189      C1190   1.402       .  A
C1189      H1193   1.085       .  S
C1190      C1191   1.410       .  A
C1190      C1194   1.481       .  S
C1191      C1192   1.401       .  A
C1191     Br1203   1.919       .  S
C1192      H1195   1.085       .  S
C1194      C1196   1.403       .  A
C1194      C1200   1.410       .  A
C1196      C1197   1.398       .  A
C1196      H1201   1.085       .  S
C1197      C1198   1.411       .  A
C1197     Br1205   1.920       .  S
C1198      C1199   1.404       .  A
C1199      C1200   1.398       .  A
C1199      H1202   1.086       .  S
C1200     Br1206   1.920       .  S
C1207      C1208   1.412       .  A
C1207      C1212   1.406       .  A
C1208      C1209   1.399       .  A
C1208     Br1224   1.920       .  S
C1209      C1210   1.402       .  A
C1209      H1213   1.081       .  S
C1210      C1211   1.407       .  A
C1210      C1214   1.477       .  S
C1211      C1212   1.396       .  A
C1211     Br1223   1.920       .  S
C1212      H1215   1.081       .  S
C1214      C1216   1.402       .  A
C1214      C1220   1.407       .  A
C1216      C1217   1.396       .  A
C1216      H1221   1.085       .  S
C1217      C1218   1.411       .  A
C1217     Br1225   1.922       .  S
C1218      C1219   1.404       .  A
C1219      C1220   1.400       .  A
C1219      H1222   1.084       .  S
C1220     Br1226   1.918       .  S
C1227      C1228   1.414       .  A
C1227      C1232   1.406       .  A
C1228      C1229   1.399       .  A
C1228     Br1244   1.919       .  S
C1229      C1230   1.400       .  A
C1229      H1233   1.085       .  S
C1230      C1231   1.404       .  A
C1230      C1234   1.474       .  S
C1231      C1232   1.397       .  A
C1231     Br1243   1.919       .  S
C1232      H1235   1.085       .  S
C1234      C1236   1.401       .  A
C1234      C1240   1.408       .  A
C1236      C1237   1.395       .  A
C1236      H1241   1.083       .  S
C1237      C1238   1.408       .  A
C1237     Br1245   1.920       .  S
C1238      C1239   1.403       .  A
C1239      C1240   1.401       .  A
C1239      H1242   1.083       .  S
C1240     Br1246   1.918       .  S
C1247      C1248   1.412       .  A
C1248      C1249   1.399       .  A
C1248     Br1264   1.921       .  S
C1249      C1250   1.401       .  A
C1249      H1253   1.084       .  S
C1250      C1254   1.476       .  S
C1251      C1252   1.398       .  A
C1251     Br1263   1.918       .  S
C1252      H1255   1.084       .  S
C1254      C1260   1.407       .  A
C1256      C1257   1.400       .  A
C1256      H1261   1.083       .  S
C1257      C1258   1.412       .  A
C1257     Br1265   1.916       .  S
C1259      C1260   1.398       .  A
C1259      H1262   1.084       .  S
C1260     Br1266   1.919       .  S
C1267      C1272   1.405       .  A
C1268      C1269   1.398       .  A
C1268     Br1284   1.919       .  S
C1269      H1273   1.083       .  S
C1270      C1271   1.408       .  A
C1271      C1272   1.399       .  A
C1271     Br1283   1.919       .  S
C1272      H1275   1.083       .  S
C1274      C1280   1.408   1_554  A
C1276      C1277   1.397       .  A
C1276      H1281   1.084       .  S
C1277     Br1285   1.920       .  S
C1278      C1279   1.405   1_554  A
C1279      C1280   1.399       .  A
C1279      H1282   1.084       .  S
C1280     Br1286   1.919       .  S
C1287      C1288   1.412       .  A
C1287      C1292   1.405       .  A
C1288      C1289   1.400       .  A
C1288     Br1304   1.920       .  S
C1289      C1290   1.403       .  A
C1289      H1293   1.084       .  S
C1290      C1291   1.407       .  A
C1290      C1294   1.478       .  S
C1291      C1292   1.396       .  A
C1291     Br1303   1.920       .  S
C1292      H1295   1.084       .  S
C1294      C1296   1.402       .  A
C1294      C1300   1.408       .  A
C1296      C1297   1.399       .  A
C1296      H1301   1.081       .  S
C1297      C1298   1.413       .  A
C1297     Br1305   1.920       .  S
C1298      C1299   1.404       .  A
C1299      C1300   1.398       .  A
C1299      H1302   1.081       .  S
C1300     Br1306   1.920       .  S
C1307      C1308   1.410       .  A
C1307      C1312   1.404       .  A
C1308      C1309   1.398       .  A
C1308     Br1324   1.915       .  S
C1309      C1310   1.402       .  A
C1309      H1313   1.083       .  S
C1310      C1311   1.408       .  A
C1310      C1314   1.476       .  S
C1311      C1312   1.397       .  A
C1311     Br1323   1.920       .  S
C1312      H1315   1.083       .  S
C1314      C1316   1.399       .  A
C1314      C1320   1.409       .  A
C1316      C1317   1.395       .  A
C1316      H1321   1.082       .  S
C1317      C1318   1.414       .  A
C1317     Br1325   1.921       .  S
C1318      C1319   1.404       .  A
C1319      C1320   1.399       .  A
C1319      H1322   1.082       .  S
C1320     Br1326   1.919       .  S
C1327      C1328   1.409       .  A
C1327      C1332   1.404       .  A
C1328      C1329   1.401       .  A
C1328     Br1344   1.918       .  S
C1329      C1330   1.404       .  A
C1329      H1333   1.082       .  S
C1330      C1331   1.405       .  A
C1330      C1334   1.472       .  S
C1331      C1332   1.392       .  A
C1331     Br1343   1.921       .  S
C1332      H1335   1.083       .  S
C1334      C1336   1.401   1_655  A
C1334      C1340   1.406       .  A
C1336      C1337   1.397       .  A
C1336      H1341   1.084       .  S
C1337      C1338   1.413   1_455  A
C1337     Br1345   1.922       .  S
C1338      C1339   1.404       .  A
C1339      C1340   1.396       .  A
C1339      H1342   1.084       .  S
C1340     Br1346   1.919       .  S
C1347      C1348   1.414       .  A
C1347      C1352   1.405   1_655  A
C1348      C1349   1.397       .  A
C1348     Br1364   1.921       .  S
C1349      C1350   1.401       .  A
C1349      H1353   1.083       .  S
C1350      C1351   1.406   1_655  A
C1350      C1354   1.474       .  S
C1351      C1352   1.396       .  A
C1351     Br1363   1.920       .  S
C1352      H1355   1.083       .  S
C1354      C1356   1.404       .  A
C1354      C1360   1.406       .  A
C1356      C1357   1.399       .  A
C1356      H1361   1.083       .  S
C1357      C1358   1.407       .  A
C1357     Br1365   1.918       .  S
C1358      C1359   1.404       .  A
C1359      C1360   1.393       .  A
C1359      H1362   1.084       .  S
C1360     Br1366   1.920       .  S
C1367      C1368   1.409       .  A
C1367      C1372   1.403       .  A
C1368      C1369   1.399       .  A
C1368     Br1384   1.918       .  S
C1369      C1370   1.401       .  A
C1369      H1373   1.084       .  S
C1370      C1371   1.406       .  A
C1370      C1374   1.469       .  S
C1371      C1372   1.394       .  A
C1371     Br1383   1.921       .  S
C1372      H1375   1.084       .  S
C1374      C1376   1.402       .  A
C1374      C1380   1.403       .  A
C1376      C1377   1.400       .  A
C1376      H1381   1.085       .  S
C1377      C1378   1.412       .  A
C1377     Br1385   1.920       .  S
C1378      C1379   1.405       .  A
C1379      C1380   1.393       .  A
C1379      H1382   1.085       .  S
C1380     Br1386   1.919       .  S
C1387      C1388   1.408       .  A
C1387      C1392   1.403       .  A
C1388      C1389   1.399       .  A
C1388     Br1404   1.919       .  S
C1389      C1390   1.403       .  A
C1389      H1393   1.083       .  S
C1390      C1391   1.404       .  A
C1390      C1394   1.469       .  S
C1391      C1392   1.394       .  A
C1391     Br1403   1.919       .  S
C1392      H1395   1.083       .  S
C1394      C1396   1.401       .  A
C1394      C1400   1.406       .  A
C1396      C1397   1.394       .  A
C1396      H1401   1.086       .  S
C1397      C1398   1.407       .  A
C1397     Br1405   1.920       .  S
C1398      C1399   1.402       .  A
C1399      C1400   1.399       .  A
C1399      H1402   1.086       .  S
C1400     Br1406   1.917       .  S
C1407      C1408   1.409       .  A
C1407      C1412   1.401       .  A
C1408      C1409   1.397       .  A
C1408     Br1424   1.920       .  S
C1409      C1410   1.403       .  A
C1409      H1413   1.083       .  S
C1410      C1411   1.409       .  A
C1410      C1414   1.474       .  S
C1411      C1412   1.396       .  A
C1411     Br1423   1.920       .  S
C1412      H1415   1.083       .  S
C1414      C1416   1.400       .  A
C1414      C1420   1.411       .  A
C1416      C1417   1.392       .  A
C1416      H1421   1.083       .  S
C1417      C1418   1.408       .  A
C1417     Br1425   1.921       .  S
C1418      C1419   1.401       .  A
C1419      C1420   1.400       .  A
C1419      H1422   1.083       .  S
C1420     Br1426   1.919       .  S
C1427      C1428   1.416       .  A
C1427      C1432   1.406       .  A
C1428      C1429   1.397       .  A
C1428     Br1444   1.922       .  S
C1429      C1430   1.399       .  A
C1429      H1433   1.085       .  S
C1430      C1431   1.404       .  A
C1430      C1434   1.470       .  S
C1431      C1432   1.395       .  A
C1431     Br1443   1.919       .  S
C1432      H1435   1.084       .  S
C1434      C1436   1.397       .  A
C1434      C1440   1.406       .  A
C1436      C1437   1.393       .  A
C1436      H1441   1.085       .  S
C1437      C1438   1.415       .  A
C1437     Br1445   1.920       .  S
C1438      C1439   1.405       .  A
C1439      C1440   1.399       .  A
C1439      H1442   1.085       .  S
C1440     Br1446   1.917       .  S
C1447      C1452   1.403       .  A
C1448      C1449   1.401       .  A
C1448     Br1464   1.918       .  S
C1449      H1453   1.082       .  S
C1450      C1451   1.407       .  A
C1450      C1454   1.472       .  S
C1451      C1452   1.395       .  A
C1451     Br1463   1.920       .  S
C1452      H1455   1.083       .  S
C1454      C1456   1.401       .  A
C1456      C1457   1.401       .  A
C1456      H1461   1.083       .  S
C1457      C1458   1.414       .  A
C1457     Br1465   1.920       .  S
C1459      C1460   1.393       .  A
C1459      H1462   1.081       .  S
C1460     Br1466   1.920       .  S
C1467      C1468   1.408       .  A
C1468      C1469   1.395       .  A
C1468     Br1484   1.917       .  S
C1469      C1470   1.401       .  A
C1469      H1473   1.084       .  S
C1470      C1474   1.475   1_556  S
C1471      C1472   1.399       .  A
C1471     Br1483   1.919       .  S
C1472      H1475   1.084       .  S
C1474      C1480   1.406   1_554  A
C1476      C1477   1.399       .  A
C1476      H1481   1.083       .  S
C1477     Br1485   1.920       .  S
C1478      C1479   1.407   1_554  A
C1479      C1480   1.396       .  A
C1479      H1482   1.083       .  S
C1480     Br1486   1.920       .  S
C1487      C1488   1.408       .  A
C1487      C1492   1.401       .  A
C1488      C1489   1.398       .  A
C1488     Br1504   1.919       .  S
C1489      C1490   1.402       .  A
C1489      H1493   1.082       .  S
C1490      C1491   1.410       .  A
C1490      C1494   1.476       .  S
C1491      C1492   1.398       .  A
C1491     Br1503   1.920       .  S
C1492      H1495   1.082       .  S
C1494      C1496   1.402       .  A
C1494      C1500   1.408       .  A
C1496      C1497   1.397       .  A
C1496      H1501   1.082       .  S
C1497      C1498   1.410       .  A
C1497     Br1505   1.920       .  S
C1498      C1499   1.405       .  A
C1499      C1500   1.398       .  A
C1499      H1502   1.082       .  S
C1500     Br1506   1.919       .  S
C1507      C1508   1.413       .  A
C1507      C1512   1.406       .  A
C1508      C1509   1.394       .  A
C1508     Br1524   1.919       .  S
C1509      C1510   1.400       .  A
C1509      H1513   1.085       .  S
C1510      C1511   1.408       .  A
C1510      C1514   1.477       .  S
C1511      C1512   1.399       .  A
C1511     Br1523   1.919       .  S
C1512      H1515   1.084       .  S
C1514      C1516   1.400       .  A
C1514      C1520   1.410       .  A
C1516      C1517   1.397       .  A
C1516      H1521   1.082       .  S
C1517      C1518   1.414       .  A
C1517     Br1525   1.921       .  S
C1518      C1519   1.402       .  A
C1519      C1520   1.397       .  A
C1519      H1522   1.082       .  S
C1520     Br1526   1.920       .  S
C1527      C1528   1.410       .  A
C1527      C1532   1.402       .  A
C1528      C1529   1.401       .  A
C1528     Br1544   1.918       .  S
C1529      C1530   1.403       .  A
C1529      H1533   1.082       .  S
C1530      C1531   1.407       .  A
C1530      C1534   1.474       .  S
C1531      C1532   1.394       .  A
C1531     Br1543   1.920       .  S
C1532      H1535   1.082       .  S
C1534      C1536   1.399       .  A
C1534      C1540   1.408       .  A
C1536      C1537   1.398       .  A
C1536      H1541   1.083       .  S
C1537      C1538   1.414       .  A
C1537     Br1545   1.921       .  S
C1538      C1539   1.404       .  A
C1539      C1540   1.397       .  A
C1539      H1542   1.083       .  S
C1540     Br1546   1.919       .  S
C1547      C1548   1.409       .  A
C1547      C1552   1.400       .  A
C1548      C1549   1.398       .  A
C1548     Br1564   1.920       .  S
C1549      C1550   1.402       .  A
C1549      H1553   1.081       .  S
C1550      C1551   1.408       .  A
C1550      C1554   1.472       .  S
C1551      C1552   1.394       .  A
C1551     Br1563   1.920       .  S
C1552      H1555   1.082       .  S
C1554      C1556   1.402       .  A
C1554      C1560   1.405       .  A
C1556      C1557   1.397       .  A
C1556      H1561   1.084       .  S
C1557      C1558   1.412       .  A
C1557     Br1565   1.916       .  S
C1558      C1559   1.406       .  A
C1559      C1560   1.394       .  A
C1559      H1562   1.084       .  S
C1560     Br1566   1.919       .  S
C1567      C1568   1.410       .  A
C1568      C1569   1.400       .  A
C1568     Br1584   1.918       .  S
C1569      C1570   1.402       .  A
C1569      H1573   1.083       .  S
C1570      C1574   1.470       .  S
C1571      C1572   1.392       .  A
C1571     Br1583   1.920       .  S
C1572      H1575   1.084       .  S
C1574      C1580   1.405       .  A
C1576      C1577   1.400       .  A
C1576      H1581   1.083       .  S
C1577     Br1585   1.919       .  S
C1578      C1579   1.405       .  A
C1579      C1580   1.393       .  A
C1579      H1582   1.083       .  S
C1580     Br1586   1.920       .  S
C1587      C1588   1.411   1_545  A
C1587      C1592   1.404       .  A
C1588      C1589   1.395       .  A
C1588     Br1604   1.921       .  S
C1589      C1590   1.400       .  A
C1589      H1593   1.081       .  S
C1590      C1591   1.406   1_565  A
C1590      C1594   1.471       .  S
C1591      C1592   1.398       .  A
C1591     Br1603   1.918       .  S
C1592      H1595   1.082       .  S
C1594      C1596   1.403       .  A
C1594      C1600   1.406       .  A
C1596      C1597   1.400       .  A
C1596      H1601   1.083   1_565  S
C1597      C1598   1.408       .  A
C1597     Br1605   1.917       .  S
C1598      C1599   1.403       .  A
C1599      C1600   1.394       .  A
C1599      H1602   1.084       .  S
C1600     Br1606   1.920       .  S
C1607      C1608   1.407       .  A
C1607      C1612   1.400       .  A
C1608      C1609   1.391       .  A
C1608     Br1624   1.920       .  S
C1609      C1610   1.399       .  A
C1609      H1613   1.085       .  S
C1610      C1611   1.408       .  A
C1610      C1614   1.466       .  S
C1611      C1612   1.397       .  A
C1611     Br1623   1.919   1_565  S
C1612      H1615   1.085       .  S
C1614      C1616   1.400       .  A
C1614      C1620   1.406   1_565  A
C1616      C1617   1.396       .  A
C1616      H1621   1.081       .  S
C1617      C1618   1.411   1_565  A
C1617     Br1625   1.920       .  S
C1618      C1619   1.402       .  A
C1619      C1620   1.392       .  A
C1619      H1622   1.082       .  S
C1620     Br1626   1.920       .  S
C1627      C1632   1.405       .  A
C1628      C1629   1.394       .  A
C1628     Br1644   1.914       .  S
C1629      H1633   1.083       .  S
C1630      C1631   1.408       .  A
C1630      C1634   1.473       .  S
C1631      C1632   1.400       .  A
C1631     Br1643   1.919       .  S
C1632      H1635   1.083       .  S
C1634      C1636   1.400       .  A
C1636      C1637   1.395       .  A
C1636      H1641   1.083       .  S
C1637      C1638   1.411       .  A
C1637     Br1645   1.922       .  S
C1639      C1640   1.398       .  A
C1639      H1642   1.083       .  S
C1640     Br1646   1.919       .  S
C1647      C1648   1.413       .  A
C1647      C1652   1.405       .  A
C1648      C1649   1.395       .  A
C1648     Br1664   1.923       .  S
C1649      C1650   1.401       .  A
C1649      H1653   1.085       .  S
C1650      C1651   1.404       .  A
C1650      C1654   1.467       .  S
C1651      C1652   1.392       .  A
C1651     Br1663   1.920       .  S
C1652      H1655   1.084       .  S
C1654      C1656   1.400       .  A
C1654      C1660   1.408       .  A
C1656      C1657   1.391       .  A
C1656      H1661   1.085       .  S
C1657      C1658   1.408       .  A
C1657     Br1665   1.921       .  S
C1658      C1659   1.402       .  A
C1659      C1660   1.396       .  A
C1659      H1662   1.085       .  S
C1660     Br1666   1.919       .  S
C1667      C1668   1.413       .  A
C1667      C1672   1.403       .  A
C1668      C1669   1.400       .  A
C1668     Br1684   1.921       .  S
C1669      C1670   1.401       .  A
C1669      H1673   1.083       .  S
C1670      C1671   1.405       .  A
C1670      C1674   1.472       .  S
C1671      C1672   1.395       .  A
C1671     Br1683   1.919       .  S
C1672      H1675   1.083       .  S
C1674      C1676   1.403       .  A
C1674      C1680   1.405       .  A
C1676      C1677   1.402       .  A
C1676      H1681   1.081       .  S
C1677      C1678   1.411       .  A
C1677     Br1685   1.919       .  S
C1678      C1679   1.405       .  A
C1679      C1680   1.391       .  A
C1679      H1682   1.081       .  S
C1680     Br1686   1.921       .  S
