geometry optimzed in LAMMPS
_audit_creation_date              2020-12-01 
_audit_creation_method            'lammps2cif' 
_symmetry_space_group_name_H-M    'P1' 
_symmetry_Int_Tables_number       1 
_symmetry_cell_setting            triclinic 
loop_ 
_symmetry_equiv_pos_as_xyz 
  x,y,z 
_cell_length_a                    45.77701771 
_cell_length_b                    45.76155471484051 
_cell_length_c                    37.36378848968009 
_cell_angle_alpha                 90.10872679398426 
_cell_angle_beta                  90.1043786721542 
_cell_angle_gamma                 125.08925426087183 
loop_ 
_atom_site_label 
_atom_site_type_symbol 
_atom_site_fract_x 
_atom_site_fract_y 
_atom_site_fract_z 
_atom_site_charge 
C1          C  0.50172674  0.82692028  0.49881099     0.03100
C2          C  0.50698698  0.84576785  0.46716433    -0.13100
C3          C  0.50617471  0.87588499  0.46767123     0.00600
C4          C  0.50614343  0.89036435  0.00166521    -0.11600
C5          C  0.49958437  0.87113703  0.03338680     0.03100
C6          C  0.50069161  0.84112098  0.03263216    -0.11000
H7          H  0.51329283  0.83805665  0.44249946     0.08600
H8          H  0.50630162  0.91409774  0.00193999     0.06200
H9          H  0.49619641  0.82614019  0.05688666     0.06000
C10         C  0.30416139  0.90554291  0.49916201     0.03100
C11         C  0.31717978  0.92144008  0.03363024    -0.13100
C12         C  0.35172890  0.95243427  0.03776337     0.00600
C13         C  0.37292311  0.96949282  0.00752884    -0.11600
C14         C  0.36090533  0.95226101  0.47306009     0.03100
C15         C  0.32587180  0.92178963  0.46907285    -0.11000
H16         H  0.30155472  0.90719756  0.05713766     0.08600
H17         H  0.40033902  0.99238148  0.01087740     0.06200
H18         H  0.31623810  0.90946113  0.44295370     0.06000
O19         O  0.43743541  0.99441934  0.31796598    -0.75400
O20         O  0.48562854  0.01651024  0.35461529    -0.54300
C21         C  0.45217900  0.00139590  0.34907865     0.78400
O22         O  0.50440682  0.93659147  0.19174318    -0.60000
O23         O  0.50829417  0.97485777  0.14995073    -0.53000
C24         C  0.50366543  0.94548305  0.15929891     0.70400
O25         O  0.51208030  0.94337189  0.31215251    -0.74500
O26         O  0.52808892  0.98875572  0.35104455    -0.55100
C27         C  0.51895174  0.95707743  0.34375686     0.76400
O28         O  0.42607706  0.99162906  0.19751639    -0.59700
O29         O  0.46654638  0.00477809  0.15355328    -0.52800
C30         C  0.43528507  0.99363073  0.16462887     0.73000
Zr31       Zr  0.45567312  0.00323667  0.25540504     2.54700
O32         O  0.40104125  0.94311659  0.25862355    -0.80200
O33         O  0.42308075  0.03025893  0.26182566    -0.93600
Zr34       Zr  0.51282868  0.96248872  0.25114439     2.64700
O35         O  0.45761832  0.90274619  0.25372297    -0.98600
O36         O  0.54901876  0.93916403  0.24983674    -0.80700
O37         O  0.48677050  0.98430960  0.28749582    -0.84000
O38         O  0.48009588  0.97954117  0.21934469    -2.18700
O39         O  0.54471112  0.11987563  0.18458016    -0.67400
O40         O  0.53033959  0.07463738  0.14621624    -0.52000
C41         C  0.53837620  0.10593556  0.15306817     0.71400
O42         O  0.63169054  0.07236561  0.30105865    -0.60300
O43         O  0.59136799  0.06008168  0.34485343    -0.52300
C44         C  0.62254431  0.07086063  0.33395496     0.73200
O45         O  0.62129994  0.06798422  0.17976466    -0.71700
O46         O  0.57294177  0.04682153  0.14354006    -0.50400
C47         C  0.60637512  0.06154300  0.14870761     0.74500
O48         O  0.55300506  0.12715705  0.30523285    -0.67000
O49         O  0.55035045  0.08958068  0.34730088    -0.54200
C50         C  0.55426614  0.11857513  0.33766659     0.72900
Zr51       Zr  0.54523814  0.10146002  0.24588627     2.77500
O52         O  0.60170602  0.16008497  0.24237455    -0.97800
O53         O  0.51171975  0.12774527  0.24513193    -0.78600
Zr54       Zr  0.60265241  0.06089423  0.24247524     2.70100
O55         O  0.65481429  0.12254237  0.24008756    -0.79900
O56         O  0.63865405  0.03738023  0.23861992    -0.98900
Zr57       Zr  0.53540567  0.03656758  0.31560135     2.21500
Zr58       Zr  0.52277941  0.02728780  0.18210454     2.11100
O59         O  0.57141664  0.07955496  0.21017566    -2.47600
O60         O  0.57786580  0.08439557  0.27834583    -0.79700
O61         O  0.49669246  0.05025154  0.21659252    -0.71800
O62         O  0.56129036  0.01352797  0.28068597    -2.32800
O63         O  0.50314340  0.05505142  0.28473628    -2.29000
O64         O  0.55513614  0.00899072  0.21270016    -0.73600
H65         H  0.46145652  0.95960129  0.20540545     0.78400
H66         H  0.57362141  0.00656962  0.29548122     0.79500
H67         H  0.58700777  0.09737370  0.19279731     0.81700
H68         H  0.49337456  0.06369477  0.30112206     0.79300
H69         H  0.57142898  0.95806574  0.23795830     0.42300
H70         H  0.63114049  0.02352010  0.21600892     0.41300
H71         H  0.67509394  0.12146034  0.24685498     0.41000
H72         H  0.61428174  0.15842532  0.22179529     0.38900
H73         H  0.48729357  0.10803169  0.25238733     0.42100
H74         H  0.39759397  0.00986326  0.26162461     0.36800
H75         H  0.38270953  0.94644201  0.26731544     0.43000
H76         H  0.46513603  0.88729065  0.26137670     0.39400
H77         H  0.59509365  0.17609785  0.23406585     0.44300
H78         H  0.42662072  0.04254925  0.23880368     0.43000
H79         H  0.44472429  0.90342967  0.27458975     0.43200
H80         H  0.66318314  0.05852941  0.23390103     0.43500
C81         C  0.54826195  0.23024531  0.49873051     0.03100
C82         C  0.55185445  0.21647147  0.02930575    -0.13100
C83         C  0.55599567  0.18848104  0.02827189     0.00600
C84         C  0.56096925  0.17730403  0.99527414    -0.11600
C85         C  0.56087953  0.19413328  0.46309213     0.03100
C86         C  0.55389329  0.22017134  0.46535217    -0.11000
H87         H  0.54663338  0.22431363  0.05457529     0.08600
H88         H  0.56273416  0.15468580  0.99444320     0.06200
H89         H  0.55261451  0.23249532  0.44121153     0.06000
C90         C  0.69955253  0.10901106  0.02550036     0.03100
C91         C  0.68566466  0.09661379  0.99094953    -0.13100
C92         C  0.70743234  0.11341014  0.46054499     0.00600
C93         C  0.74276957  0.14299788  0.46467869    -0.11600
C94         C  0.75658050  0.15685535  0.49878284     0.03100
C95         C  0.73488744  0.13916077  0.02950967    -0.11000
H96         H  0.65784370  0.07463386  0.98754950     0.08600
H97         H  0.75859149  0.15699386  0.44119320     0.06200
H98         H  0.74507686  0.15008563  0.05599226     0.06000
O99         O  0.11631344  0.53646181  0.31216527    -0.75400
O100        O  0.07644102  0.53317336  0.35150781    -0.54300
C101        C  0.10457429  0.53454004  0.34401892     0.78400
O102        O  0.08852529  0.63410711  0.18830359    -0.60000
O103        O  0.06796419  0.58836170  0.14843079    -0.53000
C104        C  0.08434805  0.62162285  0.15638647     0.70400
O105        O  0.08992913  0.63461587  0.30932308    -0.74500
O106        O  0.06653733  0.58927068  0.34985759    -0.55100
C107        C  0.08439236  0.62241468  0.34145855     0.76400
O108        O  0.11864910  0.53603908  0.19099594    -0.59700
O109        O  0.07952273  0.53159558  0.14964269    -0.52800
C110        C  0.10770099  0.53355476  0.15857293     0.73000
Zr111      Zr  0.09628028  0.53512645  0.25099069     2.54700
O112        O  0.16008239  0.58183074  0.25279191    -0.80200
O113        O  0.10501558  0.48744496  0.24958989    -0.93600
Zr114      Zr  0.07622601  0.60958539  0.24873858     2.64700
O115        O  0.13999002  0.65655467  0.24648845    -0.98600
O116        O  0.06036407  0.65206641  0.24934490    -0.80700
O117        O  0.08655876  0.57318386  0.28408472    -0.84000
O118        O  0.08786023  0.57284444  0.21583247    -2.18700
O119        O  0.97728905  0.43310939  0.18997999    -0.67400
O120        O  0.00555744  0.47793695  0.14880129    -0.52000
C121        C  0.98572292  0.44483343  0.15772185     0.71400
O122        O  0.95273003  0.53748449  0.30808754    -0.60300
O123        O  0.99121520  0.54030892  0.34927252    -0.52300
C124        C  0.96435194  0.54075499  0.34040605     0.73200
O125        O  0.95411313  0.53529300  0.18587395    -0.71700
O126        O  0.99242091  0.53533591  0.14673363    -0.50400
C127        C  0.96570138  0.53645015  0.15407917     0.74500
O128        O  0.97575197  0.43398248  0.31010708    -0.67000
O129        O  0.99734791  0.47957464  0.35032401    -0.54200
C130        C  0.97977981  0.44625205  0.34207035     0.72900
Zr131      Zr  0.99069375  0.45890821  0.24998037     2.77500
O132        O  0.92593751  0.41733325  0.25229168    -0.97800
O133        O  0.99922256  0.41108478  0.25096559    -0.78600
Zr134      Zr  0.97155531  0.53347485  0.24761539     2.70100
O135        O  0.90830512  0.48488863  0.24750417    -0.79900
O136        O  0.96024733  0.57938611  0.24727265    -0.98900
Zr137      Zr  0.03292664  0.53448155  0.31655716     2.21500
Zr138      Zr  0.03514810  0.53339562  0.18206850     2.11100
O139        O  0.98100309  0.49535241  0.21415483    -2.47600
O140        O  0.97980181  0.49584990  0.28331313    -0.79700
O141        O  0.04410425  0.49579542  0.21663549    -0.71800
O142        O  0.02359630  0.57218782  0.28224405    -2.32800
O143        O  0.04330803  0.49639773  0.28452152    -2.29000
O144        O  0.02431461  0.57134247  0.21374635    -0.73600
H145        H  0.10826249  0.58749189  0.20045983     0.78400
H146        H  0.02015552  0.58713943  0.29729793     0.79500
H147        H  0.96121147  0.48078443  0.19800022     0.81700
H148        H  0.04659331  0.48199878  0.30058454     0.79300
H149        H  0.04335176  0.64456830  0.22919491     0.42300
H150        H  0.97098698  0.59268967  0.22474268     0.41300
H151        H  0.89632433  0.49570870  0.23815859     0.41000
H152        H  0.91692119  0.42827857  0.23714003     0.38900
H153        H  0.97512346  0.38904012  0.24658442     0.42100
H154        H  0.08862262  0.47033414  0.26804251     0.36800
H155        H  0.16169633  0.60424174  0.25556659     0.43000
H156        H  0.14149286  0.67846248  0.24054420     0.39400
H157        H  0.92046246  0.39624522  0.23849445     0.44300
H158        H  0.12918504  0.49837727  0.25975655     0.43000
H159        H  0.14840462  0.66015073  0.27158246     0.43200
H160        H  0.93417292  0.56618311  0.24345145     0.43500
C161        C  0.21915588  0.52344051  0.49987624     0.03100
C162        C  0.20698799  0.52734722  0.03260751    -0.13100
C163        C  0.18039683  0.53350478  0.03284752     0.00600
C164        C  0.16705996  0.53648343  0.00026053    -0.11600
C165        C  0.18038608  0.53485085  0.46782909     0.03100
C166        C  0.20580557  0.52697695  0.46757172    -0.11000
H167        H  0.21725837  0.52470353  0.05764657     0.08600
H168        H  0.14656928  0.54143821  0.00050619     0.06200
H169        H  0.21425941  0.52226515  0.44250450     0.06000
C170        C  0.92867676  0.35509597  0.03307777     0.03100
C171        C  0.93980350  0.37395398  0.00070199    -0.13100
C172        C  0.92289160  0.35569191  0.46600116     0.00600
C173        C  0.89530993  0.31913681  0.46618835    -0.11600
C174        C  0.88383802  0.30046559  0.49866099     0.03100
C175        C  0.90071946  0.31874669  0.03287896    -0.11000
H176        H  0.96157481  0.40206093  0.00071592     0.08600
H177        H  0.88182509  0.30566880  0.44143428     0.06200
H178        H  0.89231691  0.30401933  0.05779577     0.06000
C179        C  0.85147560  0.55060324  0.49982315     0.03100
C180        C  0.86550460  0.54994521  0.46664246    -0.13100
C181        C  0.89340423  0.54558136  0.46515859     0.00600
C182        C  0.90957176  0.54521467  0.99613453    -0.11600
C183        C  0.89607313  0.54559284  0.02970147     0.03100
C184        C  0.86806036  0.54979020  0.03136138    -0.11000
H185        H  0.85514920  0.55347817  0.44216521     0.08600
H186        H  0.93084400  0.54143000  0.99468362     0.06200
H187        H  0.85762975  0.55065539  0.05704926     0.06000
C188        C  0.17385607  0.76516944  0.49951387     0.03100
C189        C  0.15955362  0.74628355  0.46740945    -0.13100
C190        C  0.13289945  0.70964870  0.46794672     0.00600
C191        C  0.11809053  0.69313013  0.99989863    -0.11600
C192        C  0.13250608  0.71202731  0.03206378     0.03100
C193        C  0.16001160  0.74859976  0.03098633    -0.11000
H194        H  0.17081647  0.75964445  0.44209068     0.08600
H195        H  0.09756450  0.66462511  0.00060526     0.06200
H196        H  0.17312573  0.76282817  0.05555850     0.06000
O197        O  0.61940755  0.55513115  0.18872569    -0.75400
O198        O  0.57615698  0.54587242  0.15019797    -0.54300
C199        C  0.60697713  0.55275936  0.15719039     0.78400
O200        O  0.50998394  0.43948851  0.31645280    -0.60000
O201        O  0.52012817  0.48236215  0.35625196    -0.53000
C202        C  0.51349557  0.45176782  0.34838828     0.70400
O203        O  0.50787109  0.43516189  0.19536613    -0.74500
O204        O  0.51690642  0.47628563  0.15429585    -0.55100
C205        C  0.51166670  0.44657036  0.16310242     0.76400
O206        O  0.62806576  0.56491748  0.30881276    -0.59700
O207        O  0.58730501  0.55400311  0.35143934    -0.52800
C208        C  0.61830988  0.56319079  0.34148522     0.73000
Zr209      Zr  0.60112545  0.55590911  0.24964385     2.54700
O210        O  0.64074852  0.53650412  0.24913367    -0.80200
O211        O  0.65251756  0.61799382  0.24465299    -0.93600
Zr212      Zr  0.51032805  0.45841781  0.25516665     2.64700
O213        O  0.53822930  0.42636287  0.25341533    -0.98600
O214        O  0.45163302  0.40171853  0.25885135    -0.80700
O215        O  0.55140161  0.50795309  0.22368621    -0.84000
O216        O  0.55832088  0.50821993  0.28671503    -2.18700
O217        O  0.54784727  0.62131622  0.31121725    -0.67400
O218        O  0.54582574  0.58384291  0.35288719    -0.52000
C219        C  0.54834611  0.61222006  0.34372977     0.71400
O220        O  0.43080426  0.49580335  0.19666393    -0.60300
O221        O  0.46996901  0.50149226  0.15483947    -0.52300
C222        C  0.44004943  0.49539346  0.16425613     0.73200
O223        O  0.43575476  0.49810659  0.31851999    -0.71700
O224        O  0.48197770  0.51575274  0.35681544    -0.50400
C225        C  0.44976465  0.50497783  0.35010482     0.74500
O226        O  0.53822413  0.61377455  0.19063574    -0.67000
O227        O  0.52809406  0.57069652  0.15137807    -0.54200
C228        C  0.53221757  0.60015300  0.15903185     0.72900
Zr229      Zr  0.54649197  0.59882347  0.25095870     2.77500
O230        O  0.52891588  0.64005623  0.24883056    -0.97800
O231        O  0.60797678  0.65149534  0.24744329    -0.78600
Zr232      Zr  0.45536033  0.50125046  0.25650898     2.70100
O233        O  0.41680766  0.52191447  0.25861624    -0.79900
O234        O  0.40300500  0.43939117  0.25830825    -0.98900
Zr235      Zr  0.52470847  0.52541102  0.18721385     2.21500
Zr236      Zr  0.53217971  0.53192689  0.32028394     2.11100
O237        O  0.50205386  0.55207629  0.28774872    -2.47600
O238        O  0.50209815  0.54653822  0.22487829    -0.79700
O239        O  0.57720262  0.58057875  0.28512590    -0.71800
O240        O  0.47919298  0.47626586  0.22136716    -2.32800
O241        O  0.57353181  0.57758591  0.21540075    -2.29000
O242        O  0.48361449  0.48026867  0.29067273    -0.73600
H243        H  0.56983781  0.50066890  0.30199429     0.78400
H244        H  0.46113733  0.45695208  0.20645060     0.79500
H245        H  0.49181897  0.56081885  0.30325141     0.81700
H246        H  0.58969753  0.59532442  0.19815835     0.79300
H247        H  0.44301538  0.39543491  0.23381948     0.42300
H248        H  0.39808546  0.43355404  0.28406125     0.41300
H249        H  0.43148713  0.54553803  0.27052630     0.41000
H250        H  0.50946878  0.63084819  0.26654370     0.38900
H251        H  0.61082439  0.66000046  0.22249582     0.42100
H252        H  0.65265617  0.62464523  0.21941908     0.36800
H253        H  0.62744412  0.51355970  0.26221335     0.43000
H254        H  0.56012523  0.44110769  0.26808717     0.39400
H255        H  0.54928857  0.66262213  0.25941772     0.44300
H256        H  0.67356090  0.61708722  0.24661215     0.43000
H257        H  0.52241223  0.40457250  0.26782662     0.43200
H258        H  0.38301201  0.44027437  0.24982994     0.43500
C259        C  0.51109802  0.33078847  0.50354780     0.03100
C260        C  0.51150301  0.34535178  0.03500907    -0.13100
C261        C  0.50600819  0.37241274  0.03647089     0.00600
C262        C  0.50249301  0.38650245  0.50457526    -0.11600
C263        C  0.50094433  0.37059409  0.47188391     0.03100
C264        C  0.50524738  0.34262489  0.47154841    -0.11000
H265        H  0.51650774  0.33611468  0.05942194     0.08600
H266        H  0.49993637  0.40862507  0.50500431     0.06200
H267        H  0.50517782  0.33082414  0.44633414     0.06000
C268        C  0.32181680  0.48942034  0.50551045     0.03100
C269        C  0.33823496  0.49017968  0.47368849    -0.13100
C270        C  0.36610614  0.48591290  0.47440937     0.00600
C271        C  0.37782630  0.48141067  0.50727921    -0.11600
C272        C  0.36119533  0.48040012  0.03832932     0.03100
C273        C  0.33334284  0.48480418  0.03665910    -0.11000
H274        H  0.33061328  0.49607488  0.44869326     0.08600
H275        H  0.40093134  0.48045251  0.50784125     0.06200
H276        H  0.32136224  0.48603848  0.06110247     0.06000
C277        C  0.74007014  0.57355818  0.50184744     0.03100
C278        C  0.71905267  0.56522296  0.03505446    -0.13100
C279        C  0.68762130  0.56386448  0.03366771     0.00600
C280        C  0.67786779  0.57154239  0.49923213    -0.11600
C281        C  0.69609488  0.57563507  0.46746484     0.03100
C282        C  0.72687495  0.57596174  0.46889871    -0.11000
H283        H  0.72953802  0.56389929  0.06054911     0.08600
H284        H  0.65290192  0.56911681  0.49799601     0.06200
H285        H  0.73991865  0.57698346  0.44430292     0.06000
C286        C  0.52485937  0.71583830  0.50182494     0.03100
C287        C  0.52302146  0.69890513  0.03520095    -0.13100
C288        C  0.52623154  0.67029078  0.03488424     0.00600
C289        C  0.53129477  0.65864831  0.50154080    -0.11600
C290        C  0.53453380  0.67600694  0.46927808     0.03100
C291        C  0.53184370  0.70499588  0.46981168    -0.11000
H292        H  0.51759651  0.70717350  0.06006351     0.08600
H293        H  0.53383829  0.63651523  0.50159834     0.06200
H294        H  0.53524735  0.71928606  0.44533042     0.06000
C295        C  0.39124369  0.47323290  0.38169564    -0.26400
C296        C  0.42782008  0.50092181  0.38118486    -0.14500
C297        C  0.44339989  0.52416828  0.41095778     0.36200
C298        C  0.42252041  0.51884471  0.44075869    -0.25800
C299        C  0.38622033  0.49077719  0.44158278    -0.15100
C300        C  0.37036057  0.46778564  0.41166263     0.37300
N301        N  0.33364891  0.43789533  0.41157237    -0.89300
H302        H  0.37904605  0.45511498  0.35911532     0.18400
H303        H  0.43476810  0.53683829  0.46345792     0.18400
N304        N  0.48028847  0.55368108  0.41083943    -0.88400
H305        H  0.31758701  0.44720392  0.41385973     0.35700
H306        H  0.32924636  0.42195602  0.43374840     0.40800
H307        H  0.49289157  0.55084224  0.43256148     0.40500
H308        H  0.48169738  0.57708261  0.41476523     0.35300
C309        C  0.40248228  0.45923416  0.11280232    -0.26400
C310        C  0.41527666  0.48874820  0.13536008    -0.14500
C311        C  0.40808889  0.51409854  0.12745389     0.36200
C312        C  0.38873441  0.50980883  0.09639793    -0.25800
C313        C  0.37676086  0.48084345  0.07315899    -0.15100
C314        C  0.38288252  0.45479304  0.08184222     0.37300
N315        N  0.36970596  0.42438049  0.05885902    -0.89300
H316        H  0.40847399  0.44007485  0.11902663     0.18400
H317        H  0.38438401  0.53000378  0.08939971     0.18400
N318        N  0.42263841  0.54531757  0.14959298    -0.88400
H319        H  0.34182529  0.40941609  0.05911817     0.35700
H320        H  0.37668192  0.40787502  0.06897865     0.40800
H321        H  0.41005346  0.53694238  0.17446373     0.40500
H322        H  0.41648441  0.56229937  0.13896644     0.35300
C323        C  0.56676334  0.65671721  0.43405623    -0.26400
C324        C  0.54061744  0.66363084  0.43516413    -0.14500
C325        C  0.51986272  0.65739164  0.40422506     0.36200
C326        C  0.52506401  0.64336649  0.37331600    -0.25800
C327        C  0.54966734  0.63444565  0.37315710    -0.15100
C328        C  0.57146641  0.64216975  0.40337369     0.37300
N329        N  0.59798523  0.63474803  0.40282136    -0.89300
H330        H  0.58326936  0.66226291  0.45742875     0.18400
H331        H  0.50811254  0.63701820  0.35012627     0.18400
N332        N  0.49238817  0.66353573  0.40483169    -0.88400
H333        H  0.61168329  0.64179409  0.42722620     0.35700
H334        H  0.61677140  0.65109997  0.38334409     0.40800
H335        H  0.47304187  0.64571522  0.42317816     0.40500
H336        H  0.47964861  0.65759337  0.37994897     0.35300
C337        C  0.55113979  0.67258062  0.09426970    -0.26400
C338        C  0.52435077  0.65250615  0.06850922    -0.14500
C339        C  0.49862800  0.61552053  0.07395528     0.36200
C340        C  0.50185888  0.59927788  0.10388033    -0.25800
C341        C  0.52920528  0.61915143  0.12914387    -0.15100
C342        C  0.55394741  0.65622003  0.12455723     0.37300
N343        N  0.58273426  0.67671224  0.14966851    -0.89300
H344        H  0.57087120  0.70085710  0.08986855     0.18400
H345        H  0.48282563  0.57075049  0.10737526     0.18400
N346        N  0.46916686  0.59365963  0.04983124    -0.88400
H347        H  0.59865296  0.70361027  0.14228358     0.35700
H348        H  0.59899397  0.66751336  0.14831341     0.40800
H349        H  0.46828576  0.60875412  0.02953556     0.40500
H350        H  0.44564442  0.58299245  0.06440422     0.35300
C351        C  0.65001028  0.59523228  0.39698135    -0.26400
C352        C  0.64368712  0.57076694  0.37022658    -0.14500
C353        C  0.65787620  0.55056718  0.37363962     0.36200
C354        C  0.67658086  0.55387137  0.40494846    -0.25800
C355        C  0.68119519  0.57692009  0.43273850    -0.15100
C356        C  0.66907180  0.59893409  0.42805087     0.37300
N357        N  0.67561845  0.62444643  0.45512586    -0.89300
H358        H  0.63936454  0.61092970  0.39385493     0.18400
H359        H  0.68590057  0.53700611  0.40846020     0.18400
N360        N  0.65178824  0.52562670  0.34610408    -0.88400
H361        H  0.66475620  0.63832411  0.44758028     0.35700
H362        H  0.70323789  0.64330129  0.45692949     0.40800
H363        H  0.62432951  0.50598041  0.34466285     0.40500
H364        H  0.66373216  0.51261093  0.35292388     0.35300
C365        C  0.65721832  0.58437506  0.07004132    -0.26400
C366        C  0.66845178  0.56163625  0.06660740    -0.14500
C367        C  0.65990568  0.53641567  0.09369152     0.36200
C368        C  0.64118201  0.53521262  0.12400555    -0.25800
C369        C  0.62939403  0.55740204  0.12679007    -0.15100
C370        C  0.63733609  0.58216871  0.09966564     0.37300
N371        N  0.62512417  0.60486730  0.10235043    -0.89300
H372        H  0.66383953  0.60383128  0.04936781     0.18400
H373        H  0.63426433  0.51574966  0.14478087     0.18400
N374        N  0.66897623  0.51127761  0.08970268    -0.88400
H375        H  0.63296107  0.62138372  0.07993077     0.35700
H376        H  0.63778243  0.62165221  0.12447509     0.40800
H377        H  0.65465713  0.49494077  0.06775231     0.40500
H378        H  0.66064041  0.49452700  0.11198260     0.35300
C379        C  0.52850379  0.39847793  0.41387880    -0.26400
C380        C  0.50042820  0.38699730  0.43802243    -0.14500
C381        C  0.47548385  0.39527922  0.43120391     0.36200
C382        C  0.48094507  0.41698006  0.40197404    -0.25800
C383        C  0.50947357  0.42903815  0.37837823    -0.15100
C384        C  0.53341251  0.41935291  0.38416189     0.37300
N385        N  0.56355321  0.43101208  0.36140701    -0.89300
H386        H  0.54788313  0.39252085  0.41901074     0.18400
H387        H  0.46229236  0.42396447  0.39722531     0.18400
N388        N  0.44436046  0.38203886  0.45296782    -0.88400
H389        H  0.58665140  0.44684142  0.37690464     0.35700
H390        H  0.56543828  0.44716505  0.34062701     0.40800
H391        H  0.44131063  0.36369709  0.47181744     0.40500
H392        H  0.42200464  0.36753288  0.43623924     0.35300
C393        C  0.53854110  0.44323446  0.10779440    -0.26400
C394        C  0.51158427  0.42524730  0.13355198    -0.14500
C395        C  0.48423793  0.38863621  0.12895734     0.36200
C396        C  0.48324285  0.37137621  0.09724435    -0.25800
C397        C  0.50927983  0.39010515  0.07070414    -0.15100
C398        C  0.53787692  0.42605096  0.07672500     0.37300
N399        N  0.56684192  0.44561659  0.05199708    -0.89300
H400        H  0.56011321  0.47115349  0.11164493     0.18400
H401        H  0.46165742  0.34361282  0.09271914     0.18400
N402        N  0.45670242  0.36976445  0.15538306    -0.88400
H403        H  0.55711885  0.44792043  0.02765632     0.35700
H404        H  0.57808810  0.43145310  0.04780711     0.40800
H405        H  0.46849595  0.36791878  0.17845358     0.40500
H406        H  0.43769812  0.34353809  0.14697347     0.35300
C407        C  0.76087933  0.53250346  0.99127162    -0.26400
C408        C  0.76965549  0.56924746  0.50278799    -0.14500
C409        C  0.80400417  0.59549482  0.48950200     0.36200
C410        C  0.83005656  0.58860046  0.48878363    -0.25800
C411        C  0.82273901  0.55612695  0.50132726    -0.15100
C412        C  0.78843773  0.52775849  0.99028032     0.37300
N413        N  0.78011534  0.49404042  0.97759099    -0.89300
H414        H  0.73446309  0.51106076  0.98208663     0.18400
H415        H  0.85637505  0.60887323  0.47858504     0.18400
N416        N  0.81352863  0.62971558  0.47776130    -0.88400
H417        H  0.76105559  0.47423704  0.99484798     0.35700
H418        H  0.80211411  0.49277103  0.97886899     0.40800
H419        H  0.80830587  0.64142463  0.49853454     0.40500
H420        H  0.79779266  0.62628714  0.45572810     0.35300
C421        C  0.28098782  0.54089258  0.99688233    -0.26400
C422        C  0.24524405  0.51444428  0.49992254    -0.14500
C423        C  0.23610816  0.48073978  0.48825677     0.36200
C424        C  0.26139357  0.47290762  0.49060592    -0.25800
C425        C  0.29546685  0.49799171  0.50463478    -0.15100
C426        C  0.30668708  0.53359397  0.99794443     0.37300
N427        N  0.34360583  0.56272082  0.99534287    -0.89300
H428        H  0.28933672  0.56823712  0.99390946     0.18400
H429        H  0.25441675  0.44708336  0.48163223     0.18400
N430        N  0.20117304  0.45370863  0.47500875    -0.88400
H431        H  0.35450317  0.55856653  0.97299925     0.35700
H432        H  0.35684984  0.56279208  0.01820965     0.40800
H433        H  0.19631137  0.46306615  0.45187999     0.40500
H434        H  0.18245036  0.44885780  0.49440105     0.35300
C435        C  0.91026123  0.51884965  0.12140834    -0.26400
C436        C  0.94766158  0.53997738  0.12336370    -0.14500
C437        C  0.96787106  0.56365073  0.09519292     0.36200
C438        C  0.95026621  0.56507661  0.06527755    -0.25800
C439        C  0.91287075  0.54339794  0.06271171    -0.15100
C440        C  0.89258603  0.51994352  0.09109307     0.37300
N441        N  0.85431179  0.49668593  0.08863145    -0.89300
H442        H  0.89488432  0.50059604  0.14302989     0.18400
H443        H  0.96587476  0.58353253  0.04386883     0.18400
N444        N  0.00623188  0.58650397  0.09729021    -0.88400
H445        H  0.84350121  0.48116840  0.11172282     0.35700
H446        H  0.84780460  0.47898284  0.06740769     0.40800
H447        H  0.01317954  0.60421558  0.11861761     0.40500
H448        H  0.01708614  0.60209433  0.07424648     0.35300
C449        C  0.90852969  0.52396109  0.37145951    -0.26400
C450        C  0.94596091  0.54555960  0.36990297    -0.14500
C451        C  0.96573554  0.56977468  0.39814439     0.36200
C452        C  0.94772986  0.57026827  0.42820768    -0.25800
C453        C  0.91042144  0.54708644  0.43081257    -0.15100
C454        C  0.89063868  0.52425634  0.40186083     0.37300
N455        N  0.85259903  0.49998497  0.40403096    -0.89300
H456        H  0.89319154  0.50536833  0.34989947     0.18400
H457        H  0.96294749  0.58832628  0.45017332     0.18400
N458        N  0.00405329  0.59344945  0.39636497    -0.88400
H459        H  0.84576355  0.47401805  0.40115796     0.35700
H460        H  0.84153744  0.50506621  0.38248851     0.40800
H461        H  0.01454609  0.60928154  0.41942465     0.40500
H462        H  0.01056781  0.61085593  0.37496384     0.35300
C463        C  0.92053446  0.37183841  0.09369649    -0.26400
C464        C  0.94378270  0.37435346  0.06739968    -0.14500
C465        C  0.98095387  0.39732902  0.07296815     0.36200
C466        C  0.99417750  0.41957801  0.10328288    -0.25800
C467        C  0.97093742  0.41846406  0.12849234    -0.15100
C468        C  0.93378826  0.39370017  0.12430436     0.37300
N469        N  0.90972310  0.39192012  0.15034994    -0.89300
H470        H  0.89194654  0.35403263  0.08947930     0.18400
H471        H  0.02266506  0.43799922  0.10722191     0.18400
N472        N  0.00498612  0.39810287  0.04765772    -0.88400
H473        H  0.88324374  0.37219157  0.14331694     0.35700
H474        H  0.91251282  0.41625672  0.14981947     0.40800
H475        H  0.00036835  0.37291266  0.04778034     0.40500
H476        H  0.03141014  0.41630812  0.05584993     0.35300
C477        C  0.94286769  0.42510027  0.39677329    -0.26400
C478        C  0.96254975  0.42039156  0.37162019    -0.14500
C479        C  0.96642138  0.39210181  0.37592403     0.36200
C480        C  0.95244969  0.37061114  0.40668426    -0.25800
C481        C  0.93401291  0.37634995  0.43245030    -0.15100
C482        C  0.92814706  0.40309617  0.42674247     0.37300
N483        N  0.90690911  0.40810658  0.45064598    -0.89300
H484        H  0.93898186  0.44615260  0.39311694     0.18400
H485        H  0.95654495  0.34979161  0.41099069     0.18400
N486        N  0.98584180  0.38633154  0.35005017    -0.88400
H487        H  0.91892459  0.41518085  0.47589397     0.35700
H488        H  0.88176915  0.38388267  0.45278236     0.40800
H489        H  0.97066780  0.37711459  0.32652649     0.40500
H490        H  0.98811216  0.36593194  0.35845382     0.35300
C491        C  0.10911074  0.50695139  0.10172639    -0.26400
C492        C  0.12819084  0.53230515  0.12884451    -0.14500
C493        C  0.16551614  0.55717124  0.12555428     0.36200
C494        C  0.18269907  0.55679043  0.09438849    -0.25800
C495        C  0.16302064  0.53224394  0.06669007    -0.15100
C496        C  0.12618361  0.50647766  0.07103318     0.37300
N497        N  0.10610853  0.47950791  0.04431006    -0.89300
H498        H  0.08060202  0.48757918  0.10422443     0.18400
H499        H  0.21116843  0.57632780  0.09114159     0.18400
N500        N  0.18549583  0.58338420  0.15309491    -0.88400
H501        H  0.08531048  0.48105866  0.03563176     0.35700
H502        H  0.09501246  0.45463370  0.05628749     0.40800
H503        H  0.17669388  0.59999738  0.15399227     0.40500
H504        H  0.21259085  0.59963954  0.14651672     0.35300
C505        C  0.16186452  0.55579273  0.37514485    -0.26400
C506        C  0.12439593  0.53334891  0.37449489    -0.14500
C507        C  0.10595745  0.51053574  0.40365919     0.36200
C508        C  0.12504116  0.51105751  0.43316282    -0.25800
C509        C  0.16243692  0.53412626  0.43446338    -0.15100
C510        C  0.18107530  0.55660436  0.40487083     0.37300
N511        N  0.21912778  0.58165360  0.40486261    -0.89300
H512        H  0.17623600  0.57356750  0.35289594     0.18400
H513        H  0.11043530  0.49336205  0.45541039     0.18400
N514        N  0.06778175  0.48637288  0.40320260    -0.88400
H515        H  0.23091039  0.56778343  0.40551577     0.35700
H516        H  0.22675102  0.59765272  0.42776144     0.40800
H517        H  0.05787415  0.49197490  0.42539795     0.40500
H518        H  0.06088386  0.46038359  0.40592481     0.35300
C519        C  0.12817819  0.66468011  0.06826815    -0.26400
C520        C  0.12273063  0.69180570  0.06591411    -0.14500
C521        C  0.10670440  0.69752902  0.09486250     0.36200
C522        C  0.09549080  0.67526865  0.12494171    -0.25800
C523        C  0.09957877  0.64711202  0.12639944    -0.15100
C524        C  0.11686020  0.64244020  0.09815939     0.37300
N525        N  0.12326833  0.61527852  0.09993124    -0.89300
H526        H  0.14098846  0.66046055  0.04647178     0.18400
H527        H  0.08222286  0.67904379  0.14658699     0.18400
N528        N  0.09997897  0.72446074  0.09371100    -0.88400
H529        H  0.15077230  0.62757586  0.09792127     0.35700
H530        H  0.11094497  0.59835451  0.07783746     0.40800
H531        H  0.08464068  0.72016176  0.07095489     0.40500
H532        H  0.12432354  0.74941942  0.09154455     0.35300
C533        C  0.11614463  0.64128565  0.39907912    -0.26400
C534        C  0.09975773  0.64776264  0.37152024    -0.14500
C535        C  0.09559490  0.67591387  0.37490213     0.36200
C536        C  0.10690844  0.69624603  0.40661733    -0.25800
C537        C  0.12221618  0.68882913  0.43453202    -0.15100
C538        C  0.12767961  0.66175738  0.43032981     0.37300
N539        N  0.14526082  0.65524630  0.45767561    -0.89300
H540        H  0.11974377  0.61993314  0.39644344     0.16900
H541        H  0.10315567  0.71741609  0.40993743     0.18400
N542        N  0.07831614  0.68251318  0.34713641    -0.88400
H543        H  0.12794961  0.62870410  0.46589265     0.35700
H544        H  0.16781849  0.65840756  0.44644368     0.40800
H545        H  0.09522973  0.69226931  0.32495249     0.40500
H546        H  0.07550291  0.70273957  0.35489168     0.35300
C547        C  0.85173679  0.23741455  0.98433065    -0.26400
C548        C  0.85174009  0.26347021  0.49976419    -0.14500
C549        C  0.81907161  0.25599736  0.51233550     0.36200
C550        C  0.78900295  0.22076567  0.51328226    -0.25800
C551        C  0.79060758  0.19255403  0.50167820    -0.15100
C552        C  0.82210673  0.20159367  0.98495593     0.37300
N553        N  0.82542341  0.17536370  0.96812029    -0.89300
H554        H  0.87570422  0.24441356  0.97042538     0.18400
H555        H  0.76381454  0.21544908  0.52207222     0.18400
N556        N  0.81546690  0.28383005  0.52320368    -0.88400
H557        H  0.83251790  0.17546105  0.45021971     0.35700
H558        H  0.80388916  0.14690036  0.48145202     0.40800
H559        H  0.82323366  0.30165489  0.50193279     0.40500
H560        H  0.83555571  0.29207943  0.05960423     0.35300
C561        C  0.50874573  0.24699687  0.00951768    -0.26400
C562        C  0.53978970  0.25678088  0.50086146    -0.14500
C563        C  0.56347215  0.29207813  0.48809360     0.36200
C564        C  0.55265562  0.31507681  0.48853572    -0.25800
C565        C  0.51952407  0.30428682  0.50257586    -0.15100
C566        C  0.49757310  0.26971986  0.01017106     0.37300
N567        N  0.46146366  0.25513015  0.02081794    -0.89300
H568        H  0.49001394  0.21928802  0.01711416     0.18400
H569        H  0.57073985  0.34207376  0.47861136     0.18400
N570        N  0.59877857  0.30581280  0.47526323    -0.88400
H571        H  0.44446184  0.23523161  0.00231925     0.35700
H572        H  0.45569616  0.27409211  0.01967723     0.40800
H573        H  0.60519685  0.28749263  0.47840735     0.40500
H574        H  0.61693154  0.32762672  0.49141558     0.35300
C575        C  0.65882254  0.07031347  0.11711817    -0.26400
C576        C  0.62936844  0.07241421  0.11659842    -0.14500
C577        C  0.62311671  0.08596207  0.08562092     0.36200
C578        C  0.64596671  0.09667782  0.05636007    -0.25800
C579        C  0.67530885  0.09452217  0.05678566    -0.15100
C580        C  0.68171400  0.08092310  0.08758339     0.37300
N581        N  0.71031427  0.07648395  0.08958075    -0.89300
H582        H  0.66387408  0.05987087  0.14053349     0.18400
H583        H  0.64124942  0.10774427  0.03323980     0.18400
N584        N  0.59493862  0.09090266  0.08350970    -0.88400
H585        H  0.72856811  0.09448015  0.10873421     0.35700
H586        H  0.72391715  0.08242484  0.06537797     0.40800
H587        H  0.59709576  0.10647376  0.10524090     0.40500
H588        H  0.57033505  0.06604367  0.08426885     0.35300
C589        C  0.66280606  0.11675300  0.37731566    -0.26400
C590        C  0.64958427  0.08344532  0.36195906    -0.14500
C591        C  0.65712904  0.06052592  0.37771155     0.36200
C592        C  0.67775254  0.07147387  0.40922018    -0.25800
C593        C  0.69033491  0.10458084  0.42503089    -0.15100
C594        C  0.68312798  0.12764166  0.40878781     0.37300
N595        N  0.69434178  0.16088028  0.42562284    -0.89300
H596        H  0.65585864  0.13363548  0.36550353     0.18400
H597        H  0.68297306  0.05374560  0.42219855     0.18400
N598        N  0.64289633  0.02595778  0.36233259    -0.88400
H599        H  0.68453235  0.17328591  0.41155911     0.35700
H600        H  0.72212491  0.17801688  0.42381445     0.40800
H601        H  0.61507778  0.01096147  0.36407299     0.40500
H602        H  0.65087639  0.01238369  0.37729900     0.35300
C603        C  0.52452779  0.13157438  0.06154623    -0.26400
C604        C  0.55136895  0.16831264  0.06109653    -0.14500
C605        C  0.57282722  0.18509038  0.09172127     0.36200
C606        C  0.56737905  0.16443437  0.12208875    -0.25800
C607        C  0.54109886  0.12742815  0.12215961    -0.15100
C608        C  0.51888692  0.11098017  0.09182514     0.37300
N609        N  0.49039808  0.07352381  0.09204314    -0.89300
H610        H  0.50761229  0.11899190  0.03820206     0.18400
H611        H  0.58443209  0.17704952  0.14533300     0.18400
N612        N  0.60046259  0.22277756  0.09154463    -0.88400
H613        H  0.47659187  0.06565554  0.06766900     0.35700
H614        H  0.47218366  0.06962778  0.11158621     0.40800
H615        H  0.61928905  0.22738400  0.07239333     0.40500
H616        H  0.61379149  0.23093488  0.11617588     0.35300
C617        C  0.58651089  0.15398364  0.39166812    -0.26400
C618        C  0.55949430  0.14316629  0.36631716    -0.14500
C619        C  0.53589554  0.15340002  0.37058124     0.36200
C620        C  0.53803740  0.17182808  0.40143081    -0.25800
C621        C  0.56377644  0.18091572  0.42793772    -0.15100
C622        C  0.58953707  0.17369735  0.42199736     0.37300
N623        N  0.61829830  0.18600560  0.44703970    -0.89300
H624        H  0.60505795  0.14672445  0.38790480     0.18400
H625        H  0.51821557  0.17734307  0.40553732     0.18400
N626        N  0.50818877  0.14359166  0.34513046    -0.88400
H627        H  0.63479615  0.17834432  0.43880066     0.35700
H628        H  0.63392967  0.21392520  0.44683635     0.40800
H629        H  0.49227129  0.11581507  0.34216552     0.40500
H630        H  0.51996382  0.15519782  0.32053083     0.35300
C631        C  0.23854918  0.86624994  0.01015663    -0.26400
C632        C  0.27030256  0.87009676  0.49641806    -0.14500
C633        C  0.27007497  0.84034007  0.48599656     0.36200
C634        C  0.23789318  0.80634730  0.48667235    -0.25800
C635        C  0.20640000  0.80163589  0.49838857    -0.15100
C636        C  0.20632451  0.83225422  0.01022722     0.37300
N637        N  0.17493040  0.82839918  0.02343700    -0.89300
H638        H  0.23932828  0.88866921  0.02101346     0.18400
H639        H  0.23742990  0.78325154  0.47886872     0.18400
N640        N  0.30266748  0.84469575  0.47584306    -0.88400
H641        H  0.16520867  0.81100487  0.04521715     0.35700
H642        H  0.15559554  0.81704597  0.00318428     0.40800
H643        H  0.29776201  0.82009821  0.46887011     0.40500
H644        H  0.31938996  0.85388123  0.49831025     0.35300
C645        C  0.37496981  0.93824012  0.08907822    -0.26400
C646        C  0.36852438  0.96182902  0.07337720    -0.14500
C647        C  0.38051588  0.99445832  0.09038687     0.36200
C648        C  0.39988729  0.00333035  0.12256692    -0.25800
C649        C  0.40798460  0.98050849  0.13693482    -0.15100
C650        C  0.39492663  0.94744927  0.12061702     0.37300
N651        N  0.40358935  0.92426618  0.13530425    -0.89300
H652        H  0.36580286  0.91329173  0.07570354     0.18400
H653        H  0.41035415  0.02883103  0.13536498     0.18400
N654        N  0.37326443  0.01838680  0.07484883    -0.88400
H655        H  0.39254004  0.90122412  0.11964733     0.35700
H656        H  0.39161727  0.91598884  0.16047767     0.40800
H657        H  0.38742196  0.02790770  0.05086622     0.40500
H658        H  0.38312043  0.04071402  0.09133322     0.35300
C659        C  0.43967077  0.98235150  0.41250528    -0.26400
C660        C  0.42907630  0.99052010  0.38093515    -0.14500
C661        C  0.39638941  0.98716034  0.38018000     0.36200
C662        C  0.37468845  0.97483447  0.41071608    -0.25800
C663        C  0.38516667  0.96631181  0.44200628    -0.15100
C664        C  0.41792268  0.96991251  0.44291483     0.37300
N665        N  0.42846765  0.95990781  0.47428770    -0.89300
H666        H  0.46452175  0.98451862  0.41313213     0.18400
H667        H  0.34953733  0.97207316  0.41026471     0.18400
N668        N  0.38548543  0.99657595  0.34867280    -0.88400
H669        H  0.45335275  0.96433041  0.47056677     0.35700
H670        H  0.41004502  0.93240940  0.47784451     0.40800
H671        H  0.40378473  0.02404386  0.34477049     0.40500
H672        H  0.36059782  0.99210798  0.35250847     0.35300
C673        C  0.49208856  0.74026369  0.48028503    -0.26400
C674        C  0.51987533  0.74489224  0.50139066    -0.14500
C675        C  0.55245633  0.78221609  0.00382680     0.36200
C676        C  0.54724716  0.80941752  0.00253966    -0.25800
C677        C  0.50692679  0.79798368  0.49935315    -0.15100
C678        C  0.48535999  0.76637539  0.47908062     0.37300
N679        N  0.45570386  0.75946698  0.45820708    -0.89300
H680        H  0.47517358  0.71587507  0.46494913     0.18400
H681        H  0.57020331  0.83704166  0.00292284     0.18400
N682        N  0.58815134  0.79162684  0.00596256    -0.88400
H683        H  0.46504914  0.77857372  0.43803952     0.35700
H684        H  0.43874935  0.76168077  0.47488559     0.40800
H685        H  0.59259416  0.78064395  0.98386513     0.40500
H686        H  0.59035903  0.78026443  0.02915824     0.35300
C687        C  0.51395417  0.88589444  0.09813853    -0.26400
C688        C  0.49515956  0.88463975  0.06769502    -0.14500
C689        C  0.47506128  0.89913054  0.06980164     0.36200
C690        C  0.47709606  0.91761655  0.10064253    -0.25800
C691        C  0.49773444  0.92082426  0.13016827    -0.15100
C692        C  0.51506976  0.90334356  0.12938221     0.37300
N693        N  0.53567760  0.90453095  0.15897751    -0.89300
H694        H  0.52946626  0.87485012  0.09718489     0.18400
H695        H  0.46293067  0.93011706  0.10123681     0.18400
N696        N  0.45259390  0.89522721  0.04072720    -0.88400
H697        H  0.51879604  0.89220754  0.18094973     0.35700
H698        H  0.55539374  0.93121919  0.16529572     0.40800
H699        H  0.46082464  0.92072603  0.03251164     0.40500
H700        H  0.42648984  0.88202302  0.05029786     0.35300
C701        C  0.54029762  0.95233318  0.40298058    -0.26400
C702        C  0.51667620  0.93517372  0.37404155    -0.14500
C703        C  0.49125524  0.89770637  0.37482374     0.36200
C704        C  0.48929631  0.87852379  0.40514142    -0.25800
C705        C  0.51197874  0.89607936  0.43455949    -0.15100
C706        C  0.53843550  0.93305851  0.43292038     0.37300
N707        N  0.56367234  0.95102710  0.46152264    -0.89300
H708        H  0.56041690  0.98091249  0.40239082     0.18400
H709        H  0.46906549  0.84999868  0.40647938     0.18400
N710        N  0.46675391  0.87945836  0.34554329    -0.88400
H711        H  0.58930232  0.96312409  0.45098455     0.35700
H712        H  0.56158651  0.97118992  0.47125885     0.40800
H713        H  0.45018514  0.88829874  0.34445008     0.40500
H714        H  0.45014663  0.85196957  0.35025988     0.35300
C715        C  0.50851438  0.83077690  0.00080798     0.03100
C716        C  0.51445138  0.84985305  0.96921960    -0.13100
C717        C  0.51324074  0.87975744  0.96952081     0.00600
C718        C  0.50019721  0.88717476  0.50003422    -0.11600
C719        C  0.49511794  0.86868946  0.53191335     0.03100
C720        C  0.49564598  0.83837433  0.53100779    -0.11000
H721        H  0.52049987  0.84174416  0.94464682     0.08600
H722        H  0.50064344  0.91110228  0.50049815     0.06200
H723        H  0.49238141  0.82423688  0.55557640     0.06000
C724        C  0.30395272  0.90697843  0.99956346     0.03100
C725        C  0.31715623  0.92018304  0.53313078    -0.13100
C726        C  0.35200200  0.95048272  0.53731351     0.00600
C727        C  0.37362679  0.96691433  0.50724451    -0.11600
C728        C  0.36009939  0.95503789  0.97326840     0.03100
C729        C  0.32528969  0.92412534  0.96937151    -0.11000
H730        H  0.30116806  0.90637270  0.55659830     0.08600
H731        H  0.40110221  0.98963314  0.51072607     0.06200
H732        H  0.31560401  0.91219015  0.94311888     0.06000
O733        O  0.43631691  0.99377024  0.81742397    -0.75400
O734        O  0.48438081  0.01496942  0.85408521    -0.54300
C735        C  0.45100166  0.00059647  0.84860118     0.78400
O736        O  0.50597974  0.93572925  0.69169963    -0.60000
O737        O  0.50897687  0.97364329  0.64993815    -0.53000
C738        C  0.50488871  0.94454833  0.65921788     0.70400
O739        O  0.51498150  0.94416724  0.81308309    -0.74500
O740        O  0.52904518  0.98922380  0.85156654    -0.55100
C741        C  0.52134886  0.95802692  0.84462317     0.76400
O742        O  0.42620431  0.99003801  0.69672685    -0.59700
O743        O  0.46630541  0.00177456  0.65292176    -0.52800
C744        C  0.43521202  0.99122183  0.66391896     0.73000
Zr745      Zr  0.45517132  0.00120462  0.75492296     2.54700
O746        O  0.40148747  0.94037284  0.75617733    -0.80200
O747        O  0.41984741  0.02535906  0.76034436    -0.93600
Zr748      Zr  0.51364850  0.96149718  0.75155822     2.64700
O749        O  0.45912062  0.90151128  0.75671271    -0.98600
O750        O  0.54944447  0.93770591  0.75101644    -0.80700
O751        O  0.48671699  0.98290830  0.78738965    -0.84000
O752        O  0.48022553  0.97769756  0.71949836    -2.18700
O753        O  0.54294401  0.11787725  0.68383513    -0.67400
O754        O  0.53056643  0.07296351  0.64607167    -0.52000
C755        C  0.53776890  0.10400097  0.65238674     0.71400
O756        O  0.63230530  0.07492796  0.80024808    -0.60300
O757        O  0.59153668  0.06137447  0.84403613    -0.52300
C758        C  0.62303293  0.07330015  0.83312752     0.73200
O759        O  0.62065548  0.06724762  0.67886126    -0.71700
O760        O  0.57217378  0.04532704  0.64271559    -0.50400
C761        C  0.60568360  0.06049770  0.64778500     0.74500
O762        O  0.55424338  0.12714036  0.80452704    -0.67000
O763        O  0.54939384  0.08864833  0.84683109    -0.54200
C764        C  0.55467843  0.11823348  0.83710039     0.72900
Zr765      Zr  0.54425630  0.10008086  0.74525610     2.77500
O766        O  0.60108411  0.15781687  0.73797100    -0.97800
O767        O  0.51060257  0.12616779  0.74776088    -0.78600
Zr768      Zr  0.60250487  0.06044314  0.74180454     2.70100
O769        O  0.65571863  0.12124028  0.73656071    -0.79900
O770        O  0.63722875  0.03559730  0.73714348    -0.98900
Zr771      Zr  0.53486684  0.03575201  0.81528768     2.21500
Zr772      Zr  0.52247872  0.02553954  0.68203123     2.11100
O773        O  0.57064711  0.07831391  0.70967050    -2.47600
O774        O  0.57711080  0.08340838  0.77769640    -0.79700
O775        O  0.49593632  0.04838169  0.71603227    -0.71800
O776        O  0.56166675  0.01334518  0.78067059    -2.32800
O777        O  0.50226167  0.05357970  0.78407169    -2.29000
O778        O  0.55540694  0.00791961  0.71263273    -0.73600
H779        H  0.46173407  0.95756334  0.70559451     0.78400
H780        H  0.57447533  0.00705354  0.79569085     0.79500
H781        H  0.58604614  0.09610585  0.69217636     0.81700
H782        H  0.49245528  0.06223434  0.80031168     0.79300
H783        H  0.57440073  0.95906750  0.74959726     0.42300
H784        H  0.66227770  0.05671041  0.73513810     0.41300
H785        H  0.64812057  0.13379142  0.72192154     0.41000
H786        H  0.59575782  0.17545050  0.74355429     0.38900
H787        H  0.48532064  0.10535287  0.74848375     0.42100
H788        H  0.39474717  0.00412894  0.75985243     0.36800
H789        H  0.40609788  0.92852364  0.77526716     0.43000
H790        H  0.46723389  0.88669373  0.76489106     0.39400
H791        H  0.61587706  0.15953830  0.75833996     0.44300
H792        H  0.42307627  0.03750461  0.73729574     0.43000
H793        H  0.44663395  0.90275993  0.77763546     0.43200
H794        H  0.63580711  0.02579053  0.76117136     0.43500
C795        C  0.55237758  0.23305281  0.99760191     0.03100
C796        C  0.54887572  0.21367947  0.52991243    -0.13100
C797        C  0.55546685  0.18739864  0.52798347     0.00600
C798        C  0.56155251  0.17788527  0.49458068    -0.11600
C799        C  0.56207162  0.19400757  0.96331041     0.03100
C800        C  0.55760070  0.22188605  0.96469377    -0.11000
H801        H  0.54314617  0.22051475  0.55550120     0.08600
H802        H  0.56531872  0.15660376  0.49303831     0.06200
H803        H  0.55724509  0.23429484  0.94017340     0.06000
C804        C  0.70000903  0.10939450  0.52525264     0.03100
C805        C  0.68642799  0.09616102  0.49081592    -0.13100
C806        C  0.70658651  0.11436574  0.96074899     0.00600
C807        C  0.74198676  0.14381474  0.96507182    -0.11600
C808        C  0.75623272  0.15678953  0.99932448     0.03100
C809        C  0.73511249  0.14004134  0.52906339    -0.11000
H810        H  0.65871892  0.07388749  0.48747309     0.08600
H811        H  0.75758420  0.15830739  0.94165598     0.06200
H812        H  0.74506844  0.15181924  0.55532340     0.06000
O813        O  0.11393454  0.53234823  0.81196635    -0.75400
O814        O  0.07471058  0.53036158  0.85123747    -0.54300
C815        C  0.10233242  0.53078968  0.84381168     0.78400
O816        O  0.09097829  0.63244997  0.68844917    -0.60000
O817        O  0.06802627  0.58673254  0.64808493    -0.53000
C818        C  0.08579890  0.61999683  0.65641113     0.70400
O819        O  0.08945339  0.63326560  0.80887841    -0.74500
O820        O  0.06536685  0.58780905  0.84927046    -0.55100
C821        C  0.08332884  0.62104426  0.84101311     0.76400
O822        O  0.11718188  0.53343930  0.69056476    -0.59700
O823        O  0.07857747  0.52993639  0.64910228    -0.52800
C824        C  0.10660236  0.53166783  0.65814128     0.73000
Zr825      Zr  0.09459970  0.53158954  0.75059290     2.54700
O826        O  0.15885961  0.57641631  0.75211960    -0.80200
O827        O  0.10218665  0.48310616  0.74974839    -0.93600
Zr828      Zr  0.07736543  0.60773527  0.74871525     2.64700
O829        O  0.14214313  0.64897765  0.75160542    -0.98600
O830        O  0.06955406  0.65602676  0.74675489    -0.80700
O831        O  0.08621120  0.57039723  0.78408111    -0.84000
O832        O  0.08746466  0.57019971  0.71540476    -2.18700
O833        O  0.97546326  0.43193548  0.68836850    -0.67400
O834        O  0.00439314  0.47715278  0.64768808    -0.52000
C835        C  0.98413472  0.44399647  0.65619236     0.71400
O836        O  0.95252373  0.53725026  0.80713066    -0.60300
O837        O  0.99007252  0.53847540  0.84835410    -0.52300
C838        C  0.96384927  0.54000038  0.83945729     0.73200
O839        O  0.95419769  0.53539019  0.68588422    -0.71700
O840        O  0.99168701  0.53441419  0.64647549    -0.50400
C841        C  0.96526555  0.53600364  0.65404296     0.74500
O842        O  0.97266056  0.43226181  0.80966249    -0.67000
O843        O  0.99644792  0.47822458  0.84973676    -0.54200
C844        C  0.97766255  0.44483787  0.84169930     0.72900
Zr845      Zr  0.98883542  0.45682384  0.74902450     2.77500
O846        O  0.92429631  0.41336767  0.74853810    -0.97800
O847        O  0.99846020  0.40976551  0.75007659    -0.78600
Zr848      Zr  0.97161814  0.53283378  0.74710343     2.70100
O849        O  0.90874568  0.48330124  0.74536676    -0.79900
O850        O  0.95863574  0.57751120  0.74672507    -0.98900
Zr851      Zr  0.03203207  0.53269793  0.81592885     2.21500
Zr852      Zr  0.03441382  0.53193648  0.68164802     2.11100
O853        O  0.98015721  0.49421926  0.71355325    -2.47600
O854        O  0.97877569  0.49439649  0.78259513    -0.79700
O855        O  0.04240572  0.49328399  0.71575429    -0.71800
O856        O  0.02395352  0.57114848  0.78154202    -2.32800
O857        O  0.04132943  0.49372240  0.78387766    -2.29000
O858        O  0.02490416  0.57062870  0.71378644    -0.73600
H859        H  0.10787222  0.58448332  0.70003730     0.78400
H860        H  0.02068621  0.58627278  0.79659467     0.79500
H861        H  0.96029492  0.47998154  0.69734244     0.81700
H862        H  0.04418525  0.47903403  0.79998567     0.79300
H863        H  0.04724165  0.64682515  0.76017934     0.42300
H864        H  0.97435320  0.59467783  0.72796102     0.41300
H865        H  0.89586265  0.49476998  0.74620578     0.41000
H866        H  0.91596245  0.41914431  0.72697724     0.38900
H867        H  0.02473916  0.42264395  0.74956203     0.42100
H868        H  0.09534753  0.47266874  0.77402906     0.36800
H869        H  0.16185098  0.59691043  0.76499152     0.43000
H870        H  0.15089859  0.64235197  0.73109445     0.39400
H871        H  0.92068946  0.39038360  0.74270102     0.44300
H872        H  0.12835978  0.49522490  0.74878916     0.43000
H873        H  0.14714474  0.67236506  0.74490324     0.43200
H874        H  0.93422695  0.56504168  0.73665009     0.43500
C875        C  0.21859028  0.52214385  0.00006366     0.03100
C876        C  0.20691914  0.52751851  0.53258200    -0.13100
C877        C  0.18090421  0.53440506  0.53308986     0.00600
C878        C  0.16834041  0.53883716  0.50077670    -0.11600
C879        C  0.17826395  0.53100227  0.96752124     0.03100
C880        C  0.20381164  0.52330214  0.96767259    -0.11000
H881        H  0.21632461  0.52356079  0.55752673     0.08600
H882        H  0.14781351  0.54374072  0.50131617     0.06200
H883        H  0.21122352  0.51677330  0.94298940     0.06000
C884        C  0.92848092  0.35463273  0.53080359     0.03100
C885        C  0.93944352  0.37318210  0.49823996    -0.13100
C886        C  0.92239164  0.35710434  0.96845456     0.00600
C887        C  0.89413518  0.32062786  0.96863767    -0.11600
C888        C  0.88286560  0.30151069  0.00097559     0.03100
C889        C  0.90079671  0.31811079  0.53073306    -0.11000
H890        H  0.96011898  0.40163801  0.49798947     0.08600
H891        H  0.88020094  0.30749350  0.94394229     0.06200
H892        H  0.89157643  0.30359158  0.55575577     0.06000
C893        C  0.85356507  0.55318419  0.99985567     0.03100
C894        C  0.86789838  0.55361070  0.96647354    -0.13100
C895        C  0.89605318  0.54963791  0.96440965     0.00600
C896        C  0.90683680  0.54155885  0.49710699    -0.11600
C897        C  0.89367822  0.54300509  0.53044458     0.03100
C898        C  0.86599104  0.54768518  0.53163121    -0.11000
H899        H  0.85726352  0.55730175  0.94231585     0.08600
H900        H  0.92813489  0.53778719  0.49600368     0.06200
H901        H  0.85619270  0.54984330  0.55717960     0.06000
C902        C  0.17287349  0.76610428  0.99798186     0.03100
C903        C  0.15855042  0.74674547  0.96602619    -0.13100
C904        C  0.13172086  0.71007833  0.96688886     0.00600
C905        C  0.11954942  0.69217727  0.50073792    -0.11600
C906        C  0.13385202  0.71080531  0.53303416     0.03100
C907        C  0.16109243  0.74743498  0.53234671    -0.11000
H908        H  0.16985676  0.75978511  0.94059565     0.08600
H909        H  0.09932791  0.66359045  0.50112256     0.06200
H910        H  0.17406568  0.76154005  0.55702024     0.06000
O911        O  0.62193479  0.55802742  0.68877684    -0.75400
O912        O  0.57917546  0.54991040  0.65021968    -0.54300
C913        C  0.60976884  0.55616922  0.65715696     0.78400
O914        O  0.51242131  0.44155149  0.81611070    -0.60000
O915        O  0.52243349  0.48439707  0.85591960    -0.53000
C916        C  0.51560848  0.45373560  0.84802649     0.70400
O917        O  0.51387243  0.43969611  0.69492615    -0.74500
O918        O  0.52084683  0.48014459  0.65401396    -0.55100
C919        C  0.51687678  0.45095644  0.66269354     0.76400
O920        O  0.63082060  0.56791211  0.80907785    -0.59700
O921        O  0.58930694  0.55531169  0.85154921    -0.52800
C922        C  0.62041926  0.56475682  0.84171213     0.73000
Zr923      Zr  0.60465151  0.56095585  0.74984066     2.54700
O924        O  0.64700790  0.54497802  0.74939408    -0.80200
O925        O  0.65383551  0.62342186  0.74232641    -0.93600
Zr926      Zr  0.51511781  0.46172159  0.75495728     2.64700
O927        O  0.55051993  0.43741135  0.75520599    -0.98600
O928        O  0.45895889  0.40262645  0.75574456    -0.80700
O929        O  0.55838273  0.50976947  0.71862145    -0.84000
O930        O  0.56202310  0.51234187  0.78630846    -2.18700
O931        O  0.55064956  0.62362709  0.81230715    -0.67400
O932        O  0.54817249  0.58566543  0.85365045    -0.52000
C933        C  0.55116011  0.61432098  0.84474879     0.71400
O934        O  0.43141552  0.49362629  0.69733370    -0.60300
O935        O  0.47225427  0.50449990  0.65487727    -0.52300
C936        C  0.44126641  0.49537555  0.66472782     0.73200
O937        O  0.43705029  0.49719574  0.81842716    -0.71700
O938        O  0.48368309  0.51669803  0.85675176    -0.50400
C939        C  0.45108983  0.50463311  0.84999984     0.74500
O940        O  0.53842546  0.61585810  0.69128018    -0.67000
O941        O  0.53106013  0.57425270  0.65155096    -0.54200
C942        C  0.53356416  0.60284365  0.65947211     0.72900
Zr943      Zr  0.54678561  0.60066830  0.75157416     2.77500
O944        O  0.52105536  0.63484341  0.75276677    -0.97800
O945        O  0.60585988  0.65653897  0.74568759    -0.78600
Zr946      Zr  0.45755185  0.50177317  0.75669066     2.70100
O947        O  0.41921256  0.52265170  0.75761280    -0.79900
O948        O  0.40586542  0.43973206  0.76069927    -0.98900
Zr949      Zr  0.52733680  0.52874426  0.68690070     2.21500
Zr950      Zr  0.53454227  0.53417436  0.82039161     2.11100
O951        O  0.50325733  0.55311316  0.78824235    -2.47600
O952        O  0.50355520  0.54801956  0.72534933    -0.79700
O953        O  0.57874016  0.58364130  0.78547165    -0.71800
O954        O  0.48327064  0.47888561  0.72127509    -2.32800
O955        O  0.57524941  0.58093791  0.71601097    -2.29000
O956        O  0.48718678  0.48224254  0.79043935    -0.73600
H957        H  0.57368586  0.50491059  0.80156537     0.78400
H958        H  0.46565425  0.45945049  0.70617710     0.79500
H959        H  0.49275250  0.56144402  0.80395267     0.81700
H960        H  0.59128888  0.59905718  0.69899525     0.79300
H961        H  0.45000936  0.39830249  0.73080406     0.42300
H962        H  0.38524122  0.44019734  0.75376834     0.41300
H963        H  0.43530557  0.54826472  0.75138765     0.41000
H964        H  0.50254326  0.62350564  0.77159816     0.38900
H965        H  0.60467686  0.66760867  0.72348325     0.42100
H966        H  0.67369222  0.62273608  0.73306831     0.36800
H967        H  0.63198409  0.51870639  0.74624732     0.43000
H968        H  0.57024036  0.45260818  0.77228538     0.39400
H969        H  0.54006167  0.65846820  0.76279994     0.44300
H970        H  0.66114563  0.63276210  0.76702933     0.43000
H971        H  0.53534077  0.41403453  0.76730495     0.43200
H972        H  0.40844644  0.42720192  0.74066734     0.43500
C973        C  0.51259117  0.33164707  0.00185707     0.03100
C974        C  0.51290017  0.34705474  0.53602770    -0.13100
C975        C  0.50908377  0.37525630  0.53652275     0.00600
C976        C  0.50051999  0.38495579  0.00474555    -0.11600
C977        C  0.50156245  0.37142406  0.97142865     0.03100
C978        C  0.50759235  0.34463140  0.97022643    -0.11000
H979        H  0.51859342  0.33867765  0.56063494     0.08600
H980        H  0.49723423  0.40658529  0.00593687     0.06200
H981        H  0.50935378  0.33452509  0.94464873     0.06000
C982        C  0.32221140  0.48952808  0.00357728     0.03100
C983        C  0.33844955  0.48928850  0.97201028    -0.13100
C984        C  0.36602173  0.48457052  0.97338557     0.00600
C985        C  0.37733955  0.48018510  0.00656345    -0.11600
C986        C  0.36127766  0.48016255  0.53939977     0.03100
C987        C  0.33284023  0.48377089  0.53821426    -0.11000
H988        H  0.33080418  0.49454678  0.94664903     0.08600
H989        H  0.39992084  0.47837397  0.00772033     0.06200
H990        H  0.32015349  0.48355390  0.56277283     0.06000
C991        C  0.73668714  0.56764564  0.00336161     0.03100
C992        C  0.72236262  0.57097635  0.53358201    -0.13100
C993        C  0.69092446  0.56959063  0.53247614     0.00600
C994        C  0.67438129  0.56525605  0.00034982    -0.11600
C995        C  0.69280425  0.56948764  0.96872221     0.03100
C996        C  0.72371053  0.57010372  0.97035033    -0.11000
H997        H  0.73300363  0.56972863  0.55900412     0.08600
H998        H  0.64945972  0.56292231  0.99902364     0.06200
H999        H  0.73767363  0.57236685  0.94597924     0.06000
C1000       C  0.52698898  0.71696639  0.00344131     0.03100
C1001       C  0.52103356  0.69794525  0.53373743    -0.13100
C1002       C  0.52448171  0.66947257  0.53379874     0.00600
C1003       C  0.53309858  0.65965191  0.00258938    -0.11600
C1004       C  0.53704096  0.67760600  0.97056766     0.03100
C1005       C  0.53450546  0.70671450  0.97138277    -0.11000
H1006       H  0.51537268  0.70618413  0.55847416     0.08600
H1007       H  0.53523116  0.63725293  0.00247543     0.06200
H1008       H  0.53823033  0.72140335  0.94711689     0.06000
C1009       C  0.39256131  0.47109344  0.88183524    -0.26400
C1010       C  0.42873334  0.49993685  0.88095287    -0.14500
C1011       C  0.44347860  0.52415351  0.91001914     0.36200
C1012       C  0.42236736  0.51846495  0.93974445    -0.25800
C1013       C  0.38651872  0.48931307  0.94094085    -0.15100
C1014       C  0.37133772  0.46553995  0.91155539     0.37300
N1015       N  0.33493012  0.43502060  0.91170611    -0.89300
H1016       H  0.38093888  0.45238585  0.85966362     0.18400
H1017       H  0.43398170  0.53715952  0.96196225     0.18400
N1018       N  0.47963188  0.55515305  0.90906434    -0.88400
H1019       H  0.31831937  0.44372901  0.91358934     0.35700
H1020       H  0.33097655  0.41967254  0.93426304     0.40800
H1021       H  0.49322736  0.55426974  0.93108404     0.40500
H1022       H  0.47930443  0.57769860  0.91186403     0.35300
C1023       C  0.40768497  0.46142782  0.61063123    -0.26400
C1024       C  0.41577819  0.48757166  0.63611206    -0.14500
C1025       C  0.40297211  0.50889516  0.63162216     0.36200
C1026       C  0.38372500  0.50484399  0.60052291    -0.25800
C1027       C  0.37672218  0.47961477  0.57414548    -0.15100
C1028       C  0.38764055  0.45671453  0.57995761     0.37300
N1029       N  0.37881527  0.42919850  0.55444040    -0.89300
H1030       H  0.41758052  0.44507745  0.61444959     0.18400
H1031       H  0.37573667  0.52270406  0.59604446     0.18400
N1032       N  0.41173451  0.53623875  0.65735908    -0.88400
H1033       H  0.35102149  0.41114595  0.55402184     0.35700
H1034       H  0.38902795  0.41488755  0.56263258     0.40800
H1035       H  0.39842519  0.52354426  0.68109649     0.40500
H1036       H  0.40190422  0.55086390  0.64905632     0.35300
C1037       C  0.56901519  0.65774214  0.93574491    -0.26400
C1038       C  0.54350953  0.66555108  0.93645655    -0.14500
C1039       C  0.52343819  0.66011276  0.90521115     0.36200
C1040       C  0.52892644  0.64639685  0.87425448    -0.25800
C1041       C  0.55279009  0.63653880  0.87441052    -0.15100
C1042       C  0.57366335  0.64304744  0.90514010     0.37300
N1043       N  0.59906963  0.63413950  0.90524434    -0.89300
H1044       H  0.58490823  0.66250506  0.95942728     0.18400
H1045       H  0.51253060  0.64080332  0.85077149     0.18400
N1046       N  0.49618212  0.66656572  0.90557000    -0.88400
H1047       H  0.61205430  0.64028946  0.93000796     0.35700
H1048       H  0.61862299  0.65034162  0.88629985     0.40800
H1049       H  0.47643207  0.64850028  0.92347751     0.40500
H1050       H  0.48390771  0.66117231  0.88048213     0.35300
C1051       C  0.54752431  0.67361811  0.59493410    -0.26400
C1052       C  0.52293370  0.65220940  0.56782795    -0.14500
C1053       C  0.49959446  0.61479636  0.57278013     0.36200
C1054       C  0.50367412  0.59968906  0.60316022    -0.25800
C1055       C  0.52935494  0.62093724  0.62947199    -0.15100
C1056       C  0.55097710  0.65834873  0.62581633     0.37300
N1057       N  0.57729050  0.68051729  0.65257806    -0.89300
H1058       H  0.56520609  0.70227224  0.59120744     0.18400
H1059       H  0.48631210  0.57092413  0.60635963     0.18400
N1060       N  0.47154618  0.59137945  0.54785758    -0.88400
H1061       H  0.59081898  0.70748867  0.64584003     0.35700
H1062       H  0.59629529  0.67470791  0.65259826     0.40800
H1063       H  0.46900087  0.60565090  0.52786042     0.40500
H1064       H  0.44740458  0.57805670  0.56182845     0.35300
C1065       C  0.65034307  0.59363333  0.89863411    -0.26400
C1066       C  0.64496547  0.57070011  0.87061860    -0.14500
C1067       C  0.65847425  0.54981736  0.87326154     0.36200
C1068       C  0.67519732  0.55064525  0.90517887    -0.25800
C1069       C  0.67892120  0.57227989  0.93405339    -0.15100
C1070       C  0.66779512  0.59519427  0.93011883     0.37300
N1071       N  0.67388958  0.61960811  0.95827446    -0.89300
H1072       H  0.64023066  0.60985907  0.89610974     0.18400
H1073       H  0.68403827  0.53330989  0.90805508     0.18400
N1074       N  0.65395172  0.52692762  0.84416226    -0.88400
H1075       H  0.66394933  0.63442240  0.95111310     0.35700
H1076       H  0.70149936  0.63783404  0.96129896     0.40800
H1077       H  0.62661155  0.50766118  0.84069445     0.40500
H1078       H  0.66521780  0.51316748  0.85057209     0.35300
C1079       C  0.65916929  0.58832596  0.56933773    -0.26400
C1080       C  0.67151672  0.56656540  0.56566794    -0.14500
C1081       C  0.66410290  0.54178869  0.59294533     0.36200
C1082       C  0.64526040  0.54001505  0.62350497    -0.25800
C1083       C  0.63232732  0.56122680  0.62648645    -0.15100
C1084       C  0.63928912  0.58559224  0.59921453     0.37300
N1085       N  0.62614804  0.60747804  0.60204997    -0.89300
H1086       H  0.66502286  0.60757361  0.54870040     0.18400
H1087       H  0.63920693  0.52088107  0.64435823     0.18400
N1088       N  0.67450543  0.51769603  0.58900152    -0.88400
H1089       H  0.63327802  0.62376642  0.57953657     0.35700
H1090       H  0.63877968  0.62452129  0.62400956     0.40800
H1091       H  0.66035518  0.50095762  0.56722948     0.40500
H1092       H  0.66695215  0.50121764  0.61141893     0.35300
C1093       C  0.53080149  0.40151896  0.91460906    -0.26400
C1094       C  0.50198298  0.38910958  0.93803194    -0.14500
C1095       C  0.47662737  0.39673632  0.93044909     0.36200
C1096       C  0.48219046  0.41832446  0.90103618    -0.25800
C1097       C  0.51121974  0.43089787  0.87800800    -0.15100
C1098       C  0.53573455  0.42214209  0.88468541     0.37300
N1099       N  0.56642361  0.43441664  0.86257076    -0.89300
H1100       H  0.55056471  0.39620041  0.92028503     0.18400
H1101       H  0.46323135  0.42480192  0.89569320     0.18400
N1102       N  0.44490191  0.38281973  0.95143086    -0.88400
H1103       H  0.58917149  0.45090379  0.87834112     0.35700
H1104       H  0.56808059  0.45005587  0.84137296     0.40800
H1105       H  0.44164235  0.36433386  0.97019546     0.40500
H1106       H  0.42298748  0.36826149  0.93417206     0.35300
C1107       C  0.54265017  0.44778367  0.60630082    -0.26400
C1108       C  0.51670826  0.42971887  0.63300827    -0.14500
C1109       C  0.48985118  0.39286979  0.62927095     0.36200
C1110       C  0.48829472  0.37533310  0.59764757    -0.25800
C1111       C  0.51324223  0.39395419  0.57024547    -0.15100
C1112       C  0.54138509  0.43029844  0.57517533     0.37300
N1113       N  0.56929777  0.44992738  0.54938703    -0.89300
H1114       H  0.56380234  0.47594205  0.60944817     0.18400
H1115       H  0.46706162  0.34730863  0.59390022     0.18400
N1116       N  0.46326702  0.37394544  0.65654709    -0.88400
H1117       H  0.55842221  0.45140433  0.52546143     0.35700
H1118       H  0.58100659  0.43628024  0.54468233     0.40800
H1119       H  0.47599749  0.37261926  0.67910059     0.40500
H1120       H  0.44430123  0.34754289  0.64860713     0.35300
C1121       C  0.76261344  0.53718208  0.51615663    -0.26400
C1122       C  0.76677556  0.56427088  0.00404871    -0.14500
C1123       C  0.80109553  0.59215832  0.01603908     0.36200
C1124       C  0.82887554  0.58768889  0.01496448    -0.25800
C1125       C  0.82306853  0.55596417  0.00179898    -0.15100
C1126       C  0.78856852  0.53014011  0.51550783     0.37300
N1127       N  0.77861320  0.49585912  0.52802227    -0.89300
H1128       H  0.73624104  0.51688781  0.52624545     0.18400
H1129       H  0.85533429  0.60933633  0.02379526     0.18400
N1130       N  0.80860139  0.62551107  0.02831662    -0.88400
H1131       H  0.77456064  0.49498036  0.55564166     0.35700
H1132       H  0.79858742  0.49187150  0.52380038     0.40800
H1133       H  0.79237232  0.62062182  0.05035127     0.40500
H1134       H  0.80197279  0.63631554  0.00786676     0.35300
C1135       C  0.27942670  0.53955046  0.51371663    -0.26400
C1136       C  0.24470073  0.51328023  0.00012332    -0.14500
C1137       C  0.23381823  0.47769762  0.00413458     0.36200
C1138       C  0.25952399  0.47037846  0.00529303    -0.25800
C1139       C  0.29583776  0.49802540  0.00220417    -0.15100
C1140       C  0.30467309  0.53174690  0.51597437     0.37300
N1141       N  0.33966566  0.55877024  0.52911399    -0.89300
H1142       H  0.28651319  0.56541491  0.52269728     0.18400
H1143       H  0.25118923  0.44306058  0.00848513     0.18400
N1144       N  0.19689652  0.44868395  0.00696685    -0.88400
H1145       H  0.35828227  0.56379377  0.50950904     0.35700
H1146       H  0.34468172  0.54917256  0.55196466     0.40800
H1147       H  0.18363793  0.44846305  0.98404172     0.40500
H1148       H  0.18615564  0.45325491  0.02916640     0.35300
C1149       C  0.90928042  0.51823278  0.62244097    -0.26400
C1150       C  0.94673904  0.53930024  0.62368682    -0.14500
C1151       C  0.96646071  0.56295331  0.59540506     0.36200
C1152       C  0.94835958  0.56394612  0.56571016    -0.25800
C1153       C  0.91092903  0.54197273  0.56362600    -0.15100
C1154       C  0.89108146  0.51909426  0.59248092     0.37300
N1155       N  0.85273916  0.49624236  0.59088255    -0.89300
H1156       H  0.89426597  0.50024644  0.64435662     0.18400
H1157       H  0.96359488  0.58213649  0.54399862     0.18400
N1158       N  0.00482226  0.58615038  0.59714951    -0.88400
H1159       H  0.84229951  0.48115889  0.61427492     0.35700
H1160       H  0.84549581  0.47811427  0.56990210     0.40800
H1161       H  0.01181120  0.60379152  0.61855950     0.40500
H1162       H  0.01530120  0.60179367  0.57409859     0.35300
C1163       C  0.90896799  0.52676750  0.87019714    -0.26400
C1164       C  0.94632891  0.54613953  0.86887501    -0.14500
C1165       C  0.96695464  0.57010267  0.89697321     0.36200
C1166       C  0.94978433  0.57198510  0.92701624    -0.25800
C1167       C  0.91241156  0.55062318  0.92967633    -0.15100
C1168       C  0.89184984  0.52865059  0.90046906     0.37300
N1169       N  0.85367071  0.50679320  0.90219319    -0.89300
H1170       H  0.89296001  0.50869314  0.84854037     0.18400
H1171       H  0.96569638  0.58968383  0.94894481     0.18400
N1172       N  0.00531153  0.59222835  0.89500026    -0.88400
H1173       H  0.84471764  0.48014226  0.89916315     0.35700
H1174       H  0.84401638  0.51342066  0.88057870     0.40800
H1175       H  0.01650041  0.60814684  0.91792194     0.40500
H1176       H  0.01252203  0.60966170  0.87346726     0.35300
C1177       C  0.92008932  0.36979100  0.59228033    -0.26400
C1178       C  0.94347613  0.37436723  0.56498452    -0.14500
C1179       C  0.98055049  0.39968597  0.56954270     0.36200
C1180       C  0.99318375  0.42177369  0.59991904    -0.25800
C1181       C  0.96973852  0.41813978  0.62645374    -0.15100
C1182       C  0.93289284  0.39140839  0.62308955     0.37300
N1183       N  0.90854252  0.38734833  0.65016383    -0.89300
H1184       H  0.89159027  0.35043121  0.58881734     0.18400
H1185       H  0.02145941  0.44195061  0.60299105     0.18400
N1186       N  0.00513380  0.40288754  0.54327360    -0.88400
H1187       H  0.88235390  0.36635102  0.64365714     0.35700
H1188       H  0.90928066  0.41061581  0.65039050     0.40800
H1189       H  0.00278468  0.37877333  0.54286077     0.40500
H1190       H  0.03138221  0.42259755  0.55087668     0.35300
C1191       C  0.94569102  0.42825241  0.89943942    -0.26400
C1192       C  0.96041156  0.41965610  0.87194329    -0.14500
C1193       C  0.96036774  0.38886833  0.87519575     0.36200
C1194       C  0.94719967  0.36845822  0.90677343    -0.25800
C1195       C  0.93373039  0.37794888  0.93477484    -0.15100
C1196       C  0.93215833  0.40772699  0.93047884     0.37300
N1197       N  0.91617595  0.41728201  0.95669256    -0.89300
H1198       H  0.94490080  0.45139182  0.89687317     0.18400
H1199       H  0.94810074  0.34545206  0.90992037     0.18400
N1200       N  0.97516085  0.37938549  0.84737380    -0.88400
H1201       H  0.93085482  0.42469885  0.98043192     0.35700
H1202       H  0.89023830  0.39499377  0.96159279     0.40800
H1203       H  0.95813004  0.37099902  0.82522443     0.40500
H1204       H  0.97514055  0.35741570  0.85506131     0.35300
C1205       C  0.10931308  0.50497112  0.60209294    -0.26400
C1206       C  0.12756855  0.53121556  0.62859829    -0.14500
C1207       C  0.16449959  0.55774666  0.62488278     0.36200
C1208       C  0.18215935  0.55794022  0.59391282    -0.25800
C1209       C  0.16325893  0.53235570  0.56685989    -0.15100
C1210       C  0.12687644  0.50515306  0.57151360     0.37300
N1211       N  0.10775360  0.47768913  0.54503387    -0.89300
H1212       H  0.08114986  0.48436767  0.60505095     0.18400
H1213       H  0.21029652  0.57867471  0.59026321     0.18400
N1214       N  0.18350774  0.58495168  0.65180222    -0.88400
H1215       H  0.08667992  0.47845860  0.53566315     0.35700
H1216       H  0.09708617  0.45303996  0.55738420     0.40800
H1217       H  0.17301000  0.60008645  0.65220940     0.40500
H1218       H  0.21043460  0.60242118  0.64493525     0.35300
C1219       C  0.15935293  0.55023127  0.87422645    -0.26400
C1220       C  0.12188308  0.52913090  0.87429489    -0.14500
C1221       C  0.10339575  0.50748240  0.90416417     0.36200
C1222       C  0.12252584  0.50758419  0.93343455    -0.25800
C1223       C  0.16000180  0.52955477  0.93405515    -0.15100
C1224       C  0.17859338  0.55107574  0.90390734     0.37300
N1225       N  0.21671053  0.57552074  0.90337927    -0.89300
H1226       H  0.17378741  0.56725783  0.85153929     0.18400
H1227       H  0.10790943  0.49079303  0.95620996     0.18400
N1228       N  0.06513175  0.48518084  0.90483543    -0.88400
H1229       H  0.22800437  0.56120028  0.90438446     0.35700
H1230       H  0.22490597  0.59212292  0.92587040     0.40800
H1231       H  0.05673192  0.49244967  0.92703653     0.40500
H1232       H  0.05669723  0.45874387  0.90828070     0.35300
C1233       C  0.13025615  0.66373167  0.56892645    -0.26400
C1234       C  0.12416018  0.69040748  0.56662094    -0.14500
C1235       C  0.10749375  0.69553213  0.59534066     0.36200
C1236       C  0.09640783  0.67321498  0.62526376    -0.25800
C1237       C  0.10120420  0.64557571  0.62672341    -0.15100
C1238       C  0.11891704  0.64131322  0.59866054     0.37300
N1239       N  0.12559021  0.61434002  0.60041922    -0.89300
H1240       H  0.14345843  0.65994890  0.54719753     0.18400
H1241       H  0.08265368  0.67649448  0.64677342     0.18400
N1242       N  0.09999255  0.72189319  0.59408141    -0.88400
H1243       H  0.15314070  0.62684428  0.59858678     0.35700
H1244       H  0.11352751  0.59752217  0.57820972     0.40800
H1245       H  0.08472764  0.71735067  0.57119307     0.40500
H1246       H  0.12406997  0.74711033  0.59209499     0.35300
C1247       C  0.11277338  0.63916160  0.89993361    -0.26400
C1248       C  0.09824368  0.64648896  0.87117773    -0.14500
C1249       C  0.09607696  0.67604491  0.87315278     0.36200
C1250       C  0.10742746  0.69684574  0.90461785    -0.25800
C1251       C  0.12090359  0.68863000  0.93370982    -0.15100
C1252       C  0.12436464  0.66007306  0.93090726     0.37300
N1253       N  0.14008605  0.65250208  0.95936663    -0.89300
H1254       H  0.11501303  0.61685135  0.89842535     0.16900
H1255       H  0.10515057  0.71908011  0.90678210     0.18400
N1256       N  0.08084055  0.68376236  0.84416361    -0.88400
H1257       H  0.12146718  0.62625045  0.96776931     0.35700
H1258       H  0.16222885  0.65412277  0.94916433     0.40800
H1259       H  0.09851193  0.69267664  0.82263494     0.40500
H1260       H  0.07915130  0.70492141  0.85097546     0.35300
C1261       C  0.85363490  0.23543804  0.48827895    -0.26400
C1262       C  0.85107595  0.26407531  0.00205574    -0.14500
C1263       C  0.81999536  0.25463414  0.02077702     0.36200
C1264       C  0.79025548  0.21917916  0.02081882    -0.25800
C1265       C  0.79057868  0.19241613  0.00283827    -0.15100
C1266       C  0.82342861  0.19994548  0.48910788     0.37300
N1267       N  0.82728624  0.17231510  0.47768483    -0.89300
H1268       H  0.87878622  0.24117397  0.47877693     0.18400
H1269       H  0.76612834  0.21272420  0.03395260     0.18400
N1270       N  0.81718916  0.28070582  0.03855919    -0.88400
H1271       H  0.82663118  0.17937326  0.94047788     0.35700
H1272       H  0.80343846  0.14938799  0.97325830     0.40800
H1273       H  0.82317710  0.30067853  0.02026380     0.40500
H1274       H  0.83254262  0.29752613  0.54486106     0.35300
C1275       C  0.50667964  0.24605872  0.51518418    -0.26400
C1276       C  0.54330554  0.25917121  0.99860912    -0.14500
C1277       C  0.56763122  0.29527607  0.98842642     0.36200
C1278       C  0.55639849  0.31800853  0.98901227    -0.25800
C1279       C  0.52188637  0.30578954  0.00012369    -0.15100
C1280       C  0.49617005  0.26935689  0.51622961     0.37300
N1281       N  0.46169762  0.25648762  0.53084864    -0.89300
H1282       H  0.48852871  0.21906270  0.52507048     0.18400
H1283       H  0.57504685  0.34573544  0.98142854     0.18400
N1284       N  0.60383313  0.30995781  0.97804930    -0.88400
H1285       H  0.44245313  0.23520818  0.51480564     0.35700
H1286       H  0.45630146  0.27572336  0.52964712     0.40800
H1287       H  0.60977692  0.29116676  0.97988898     0.40500
H1288       H  0.62067998  0.33014226  0.99637510     0.35300
C1289       C  0.65912221  0.07089840  0.61685046    -0.26400
C1290       C  0.62876998  0.07150146  0.61565554    -0.14500
C1291       C  0.62189127  0.08384739  0.58410002     0.36200
C1292       C  0.64524860  0.09524094  0.55517406    -0.25800
C1293       C  0.67559920  0.09476477  0.55641338    -0.15100
C1294       C  0.68241081  0.08200974  0.58761135     0.37300
N1295       N  0.71180407  0.07882937  0.59030767    -0.89300
H1296       H  0.66461159  0.06123825  0.64060787     0.18400
H1297       H  0.64004656  0.10543005  0.53163450     0.18400
N1298       N  0.59247425  0.08681855  0.58099124    -0.88400
H1299       H  0.72956312  0.09727855  0.60947150     0.35700
H1300       H  0.72571400  0.08495531  0.56628322     0.40800
H1301       H  0.59359362  0.10238619  0.60218437     0.40500
H1302       H  0.56856632  0.06136284  0.58202995     0.35300
C1303       C  0.66280597  0.11898345  0.87724097    -0.26400
C1304       C  0.65001606  0.08601518  0.86125679    -0.14500
C1305       C  0.65746314  0.06293664  0.87676651     0.36200
C1306       C  0.67747588  0.07328604  0.90865687    -0.25800
C1307       C  0.68957821  0.10598812  0.92514363    -0.15100
C1308       C  0.68255377  0.12928766  0.90913033     0.37300
N1309       N  0.69337909  0.16215393  0.92655819    -0.89300
H1310       H  0.65589822  0.13596941  0.86563365     0.18400
H1311       H  0.68262600  0.05539453  0.92136192     0.18400
N1312       N  0.64361600  0.02869680  0.86075005    -0.88400
H1313       H  0.68398531  0.17489726  0.91241237     0.35700
H1314       H  0.72119934  0.17931189  0.92546155     0.40800
H1315       H  0.61576181  0.01351487  0.86217676     0.40500
H1316       H  0.65153194  0.01496215  0.87551271     0.35300
C1317       C  0.52908688  0.12956774  0.55846587    -0.26400
C1318       C  0.55198417  0.16689388  0.56015918    -0.14500
C1319       C  0.57002797  0.18376542  0.59239790     0.36200
C1320       C  0.56412540  0.16277331  0.62260123    -0.25800
C1321       C  0.54116517  0.12530205  0.62089141    -0.15100
C1322       C  0.52335438  0.10855224  0.58834330     0.37300
N1323       N  0.49906491  0.07030095  0.58576144    -0.89300
H1324       H  0.51485672  0.11671307  0.53380332     0.18400
H1325       H  0.57830059  0.17568864  0.64725917     0.18400
N1326       N  0.59471415  0.22198570  0.59410505    -0.88400
H1327       H  0.48878818  0.06239794  0.55981223     0.35700
H1328       H  0.47738612  0.06235376  0.60241625     0.40800
H1329       H  0.61578229  0.22938416  0.57674042     0.40500
H1330       H  0.60577680  0.23013976  0.61974685     0.35300
C1331       C  0.58672610  0.15269647  0.89180328    -0.26400
C1332       C  0.56031687  0.14293811  0.86596080    -0.14500
C1333       C  0.53690104  0.15335314  0.87053216     0.36200
C1334       C  0.53895699  0.17139459  0.90171104    -0.25800
C1335       C  0.56426798  0.17972839  0.92846641    -0.15100
C1336       C  0.58940856  0.17164869  0.92272720     0.37300
N1337       N  0.61717623  0.18228822  0.94856223    -0.89300
H1338       H  0.60486764  0.14492278  0.88810433     0.18400
H1339       H  0.51953417  0.17745786  0.90576099     0.18400
N1340       N  0.50947700  0.14416607  0.84495789    -0.88400
H1341       H  0.63325572  0.17408716  0.94045793     0.35700
H1342       H  0.63352906  0.21020331  0.94929644     0.40800
H1343       H  0.49335465  0.11642907  0.84162058     0.40500
H1344       H  0.52153552  0.15601145  0.82052114     0.35300
C1345       C  0.23870231  0.86542276  0.50782240    -0.26400
C1346       C  0.26976285  0.87152972  0.99642187    -0.14500
C1347       C  0.26862079  0.84231145  0.98236654     0.36200
C1348       C  0.23644101  0.80831713  0.98245647    -0.25800
C1349       C  0.20537389  0.80288332  0.99672679    -0.15100
C1350       C  0.20670685  0.83138948  0.50892307     0.37300
N1351       N  0.17494846  0.82772515  0.52049674    -0.89300
H1352       H  0.23908656  0.88829739  0.51633847     0.18400
H1353       H  0.23591704  0.78583434  0.97221472     0.18400
N1354       N  0.30039938  0.84683255  0.96933584    -0.88400
H1355       H  0.16510101  0.81126512  0.54301472     0.35700
H1356       H  0.15590550  0.81523195  0.50005352     0.40800
H1357       H  0.29599604  0.83823466  0.94269128     0.40500
H1358       H  0.30472778  0.83030231  0.98419914     0.35300
C1359       C  0.37364455  0.93546581  0.58930824    -0.26400
C1360       C  0.36840396  0.95967150  0.57297789    -0.14500
C1361       C  0.38114864  0.99267066  0.58945931     0.36200
C1362       C  0.40094459  0.00174302  0.62132103    -0.25800
C1363       C  0.40791042  0.97829570  0.63632188    -0.15100
C1364       C  0.39334203  0.94450807  0.62099105     0.37300
N1365       N  0.40006934  0.92030611  0.63689462    -0.89300
H1366       H  0.36359452  0.91007215  0.57643219     0.18400
H1367       H  0.41243864  0.02772469  0.63347580     0.18400
N1368       N  0.37403403  0.01665375  0.57379473    -0.88400
H1369       H  0.38792943  0.89672784  0.62191330     0.35700
H1370       H  0.38796389  0.91321862  0.66206683     0.40800
H1371       H  0.38780421  0.02569635  0.54957040     0.40500
H1372       H  0.38436994  0.03924951  0.58998808     0.35300
C1373       C  0.43751367  0.98124681  0.91211157    -0.26400
C1374       C  0.42799404  0.99068963  0.88064256    -0.14500
C1375       C  0.39666637  0.98996438  0.88033339     0.36200
C1376       C  0.37516260  0.97884310  0.91110599    -0.25800
C1377       C  0.38451933  0.96889705  0.94221388    -0.15100
C1378       C  0.41597989  0.97002371  0.94272737     0.37300
N1379       N  0.42535820  0.95869930  0.97395975    -0.89300
H1380       H  0.46133684  0.98151152  0.91249685     0.18400
H1381       H  0.35092810  0.97784417  0.91087815     0.18400
N1382       N  0.38691618  0.00074290  0.84899669    -0.88400
H1383       H  0.44931864  0.96122646  0.96999023     0.35700
H1384       H  0.40559837  0.93148251  0.97758062     0.40800
H1385       H  0.40665909  0.02789482  0.84496801     0.40500
H1386       H  0.36302950  0.99832305  0.85314166     0.35300
C1387       C  0.48806495  0.73813321  0.00218529    -0.26400
C1388       C  0.52261333  0.74629492  0.00343735    -0.14500
C1389       C  0.54147621  0.77652709  0.52184941     0.36200
C1390       C  0.53444921  0.80246337  0.52076330    -0.25800
C1391       C  0.51270412  0.80128722  0.00120608    -0.15100
C1392       C  0.48284529  0.76534828  0.00114825     0.37300
N1393       N  0.44712832  0.75592348  0.99964300    -0.89300
H1394       H  0.46512467  0.71050026  0.00180664     0.18400
H1395       H  0.55125882  0.82684214  0.53614157     0.18400
N1396       N  0.57153091  0.78406830  0.54270888    -0.88400
H1397       H  0.44457593  0.76722796  0.97660260     0.35700
H1398       H  0.44302025  0.76696163  0.02193228     0.40800
H1399       H  0.57691160  0.76501762  0.53896989     0.40500
H1400       H  0.56528309  0.78354482  0.56970540     0.35300
C1401       C  0.51650508  0.88821656  0.59443165    -0.26400
C1402       C  0.49346868  0.88349673  0.56656189    -0.14500
C1403       C  0.47151723  0.89558541  0.57127253     0.36200
C1404       C  0.47460425  0.91405426  0.60257897    -0.25800
C1405       C  0.49872283  0.92010312  0.62977286    -0.15100
C1406       C  0.51931815  0.90628623  0.62589342     0.37300
N1407       N  0.54480015  0.91202729  0.65238106    -0.89300
H1408       H  0.53374114  0.87930499  0.59107902     0.18400
H1409       H  0.45857384  0.92441896  0.60532678     0.18400
N1410       N  0.44616346  0.88927229  0.54432518    -0.88400
H1411       H  0.53127300  0.90011660  0.67624773     0.35700
H1412       H  0.56286145  0.93950569  0.65661249     0.40800
H1413       H  0.45205007  0.91396926  0.53619108     0.40500
H1414       H  0.42081003  0.87487028  0.55594588     0.35300
C1415       C  0.54278696  0.95542527  0.90475463    -0.26400
C1416       C  0.52035280  0.93705562  0.87528311    -0.14500
C1417       C  0.49727195  0.89932838  0.87596966     0.36200
C1418       C  0.49674311  0.88100243  0.90639429    -0.25800
C1419       C  0.51826364  0.89959610  0.93624870    -0.15100
C1420       C  0.54209597  0.93706815  0.93498653     0.37300
N1421       N  0.56584897  0.95655828  0.96429044    -0.89300
H1422       H  0.56108954  0.98429415  0.90438071     0.18400
H1423       H  0.47824058  0.85218464  0.90751692     0.18400
N1424       N  0.47350696  0.87983317  0.84651015    -0.88400
H1425       H  0.59200496  0.97094629  0.95463679     0.35700
H1426       H  0.56086766  0.97489683  0.97348619     0.40800
H1427       H  0.45520271  0.88652900  0.84518901     0.40500
H1428       H  0.45866600  0.85233969  0.85116071     0.35300
loop_ 
_geom_bond_atom_site_label_1 
_geom_bond_atom_site_label_2 
_geom_bond_distance 
_geom_bond_site_symmetry_2 
_ccdc_geom_bond_type 
C1            C2   1.402       .  A
C1          C720   1.402       .  A
C1          C677   1.474       .  S
C2            C3   1.400       .  A
C2            H7   1.084       .  S
C3          C718   1.402       .  A
C3          C705   1.476       .  S
C4            C5   1.404       .  A
C4          C717   1.401   1_554  A
C4            H8   1.082       .  S
C5            C6   1.404       .  A
C5          C688   1.486       .  S
C6          C715   1.400       .  A
C6            H9   1.084       .  S
C10          C15   1.401       .  A
C10         C725   1.396       .  A
C10         C632   1.467       .  S
C11          C12   1.399       .  A
C11         C724   1.399   1_554  A
C11          H16   1.085       .  S
C12          C13   1.401       .  A
C12         C646   1.470       .  S
C13         C728   1.403   1_554  A
C13          H17   1.084       .  S
C14          C15   1.402       .  A
C14         C727   1.402       .  A
C14         C663   1.476       .  S
C15          H18   1.084       .  S
O19         Zr31   2.439   1_565  S
O19          C21   1.287   1_565  A
O20         Zr57   2.403       .  S
O20          C21   1.283       .  A
C21         C660   1.478   1_545  S
O22         Zr34   2.437       .  S
O22          C24   1.286       .  A
O23         Zr58   2.408   1_565  S
O23          C24   1.284       .  A
C24         C691   1.474       .  S
O25         Zr34   2.436       .  S
O25          C27   1.287       .  A
O26         Zr57   2.413   1_565  S
O26          C27   1.285       .  A
C27         C702   1.477       .  S
O28         Zr31   2.440   1_565  S
O28          C30   1.286       .  A
O29         Zr58   2.401       .  S
O29          C30   1.282   1_545  A
C30         C649   1.457       .  S
Zr31         O32   2.435   1_545  S
Zr31         O33   2.436       .  S
Zr31         O37   2.373   1_545  S
Zr31         O38   2.374   1_545  S
Zr31         O61   2.374       .  S
Zr31         O63   2.367       .  S
O32          H75   0.990       .  S
O33          H74   0.990       .  S
O33          H78   0.990       .  S
Zr34         O35   2.435       .  S
Zr34         O36   2.433       .  S
Zr34         O38   2.368       .  S
Zr34         O37   2.374       .  S
Zr34         O62   2.370   1_565  S
Zr34         O64   2.372   1_565  S
O35          H76   0.990       .  S
O35          H79   0.990       .  S
O36          H69   0.990       .  S
O37         Zr57   2.375   1_565  S
O38         Zr58   2.375   1_565  S
O38          H65   0.966       .  S
O39         Zr51   2.447       .  S
O39          C41   1.289       .  A
O40         Zr58   2.401       .  S
O40          C41   1.282       .  A
C41         C607   1.477       .  S
O42         Zr54   2.453       .  S
O42          C44   1.288       .  A
O43         Zr57   2.394       .  S
O43          C44   1.280       .  A
C44         C590   1.460       .  S
O45         Zr54   2.453       .  S
O45          C47   1.290       .  A
O46         Zr58   2.409       .  S
O46          C47   1.283       .  A
C47         C576   1.483       .  S
O48         Zr51   2.436       .  S
O48          C50   1.286       .  A
O49         Zr57   2.415       .  S
O49          C50   1.285       .  A
C50         C618   1.468       .  S
Zr51         O52   2.434       .  S
Zr51         O53   2.434       .  S
Zr51         O59   2.367       .  S
Zr51         O60   2.377       .  S
Zr51         O63   2.376       .  S
Zr51         O61   2.371       .  S
O52          H72   0.990       .  S
O52          H77   0.990       .  S
O53          H73   0.990       .  S
Zr54         O55   2.434       .  S
Zr54         O56   2.436       .  S
Zr54         O60   2.376       .  S
Zr54         O59   2.373       .  S
Zr54         O64   2.377       .  S
Zr54         O62   2.372       .  S
O55          H71   0.990       .  S
O56          H70   0.990       .  S
O56          H80   0.990       .  S
Zr57         O60   2.374       .  S
Zr57         O62   2.378       .  S
Zr57         O63   2.379       .  S
Zr58         O59   2.374       .  S
Zr58         O61   2.374       .  S
Zr58         O64   2.372       .  S
O59          H67   0.965       .  S
O62          H66   0.965       .  S
O63          H68   0.967       .  S
C81          C86   1.404       .  A
C81         C796   1.400       .  A
C81         C562   1.474       .  S
C82          C83   1.399       .  A
C82         C795   1.401   1_554  A
C82          H87   1.084       .  S
C83          C84   1.402   1_554  A
C83         C604   1.477       .  S
C84         C799   1.404       .  A
C84          H88   1.084       .  S
C85          C86   1.403       .  A
C85         C798   1.403       .  A
C85         C621   1.483       .  S
C86          H89   1.084       .  S
C90          C91   1.404   1_554  A
C90          C95   1.405       .  A
C90         C579   1.483       .  S
C91         C806   1.401       .  A
C91          H96   1.084       .  S
C92          C93   1.398       .  A
C92         C805   1.401       .  A
C92         C593   1.472       .  S
C93          C94   1.400       .  A
C93          H97   1.084       .  S
C94         C809   1.406       .  A
C94         C551   1.476       .  S
C95         C808   1.407   1_554  A
C95          H98   1.084       .  S
O99        Zr111   2.449       .  S
O99         C101   1.289       .  A
O100       Zr137   2.409       .  S
O100        C101   1.284       .  A
C101        C506   1.475       .  S
O102       Zr114   2.442       .  S
O102        C104   1.287       .  A
O103       Zr138   2.416       .  S
O103        C104   1.286       .  A
C104        C523   1.475       .  S
O105       Zr114   2.447       .  S
O105        C107   1.288       .  A
O106       Zr137   2.397       .  S
O106        C107   1.282       .  A
C107        C534   1.468       .  S
O108       Zr111   2.457       .  S
O108        C110   1.290       .  A
O109       Zr138   2.409       .  S
O109        C110   1.284       .  A
C110        C492   1.477       .  S
Zr111       O112   2.434       .  S
Zr111       O113   2.434       .  S
Zr111       O117   2.376       .  S
Zr111       O118   2.372       .  S
Zr111       O141   2.373       .  S
Zr111       O143   2.381       .  S
O112        H155   0.990       .  S
O113        H154   0.990       .  S
O113        H158   0.990       .  S
Zr114       O115   2.436       .  S
Zr114       O116   2.435       .  S
Zr114       O118   2.376       .  S
Zr114       O117   2.378       .  S
Zr114       O142   2.362       .  S
Zr114       O144   2.370       .  S
O115        H156   0.990       .  S
O115        H159   0.990       .  S
O116        H149   0.990       .  S
O117       Zr137   2.378       .  S
O118       Zr138   2.376       .  S
O118        H145   0.967       .  S
O119       Zr131   2.439       .  S
O119        C121   1.287       .  A
O120       Zr138   2.419       .  S
O120        C121   1.285   1_455  A
C121        C467   1.470       .  S
O122       Zr134   2.463       .  S
O122        C124   1.292       .  A
O123       Zr137   2.409   1_655  S
O123        C124   1.284       .  A
C124        C450   1.479       .  S
O125       Zr134   2.457       .  S
O125        C127   1.291       .  A
O126       Zr138   2.402   1_655  S
O126        C127   1.283       .  A
C127        C436   1.475       .  S
O128       Zr131   2.436       .  S
O128        C130   1.286       .  A
O129       Zr137   2.423   1_655  S
O129        C130   1.286       .  A
C130        C478   1.475       .  S
Zr131       O132   2.436       .  S
Zr131       O133   2.434       .  S
Zr131       O139   2.372       .  S
Zr131       O140   2.371       .  S
Zr131       O143   2.375   1_655  S
Zr131       O141   2.378   1_655  S
O132        H152   0.990       .  S
O132        H157   0.990       .  S
O133        H153   0.990       .  S
Zr134       O135   2.434       .  S
Zr134       O136   2.436       .  S
Zr134       O140   2.375       .  S
Zr134       O139   2.378       .  S
Zr134       O144   2.376   1_655  S
Zr134       O142   2.370   1_655  S
O135        H151   0.990       .  S
O136        H150   0.990       .  S
O136        H160   0.990       .  S
Zr137       O140   2.371   1_455  S
Zr137       O142   2.378       .  S
Zr137       O143   2.375       .  S
Zr138       O139   2.381   1_455  S
Zr138       O141   2.369       .  S
Zr138       O144   2.376       .  S
O139        H147   0.965       .  S
O142        H146   0.965       .  S
O143        H148   0.965       .  S
C161        C166   1.403       .  A
C161        C876   1.401       .  A
C161        C422   1.470       .  S
C162        C163   1.398       .  A
C162        C875   1.401       .  A
C162        H167   1.084       .  S
C163        C164   1.403       .  A
C163        C495   1.479       .  S
C164        C879   1.404   1_554  A
C164        H168   1.084       .  S
C165        C166   1.402       .  A
C165        C878   1.404       .  A
C165        C509   1.482       .  S
C166        H169   1.082       .  S
C170        C171   1.403       .  A
C170        C175   1.399       .  A
C170        C464   1.480       .  S
C171        C886   1.403   1_554  A
C171        H176   1.083       .  S
C172        C173   1.402       .  A
C172        C885   1.401       .  A
C172        C481   1.476       .  S
C173        C174   1.403       .  A
C173        H177   1.084       .  S
C174        C889   1.401       .  A
C174        C548   1.472       .  S
C175        C888   1.401       .  A
C175        H178   1.084       .  S
C179        C180   1.405       .  A
C179        C898   1.404       .  A
C179        C411   1.476       .  S
C180        C181   1.403       .  A
C180        H185   1.084       .  S
C181        C896   1.402       .  A
C181        C453   1.483       .  S
C182        C183   1.404   1_556  A
C182        C895   1.404       .  A
C182        H186   1.084       .  S
C183        C184   1.403       .  A
C183        C439   1.486       .  S
C184        C893   1.402   1_554  A
C184        H187   1.084       .  S
C188        C189   1.399       .  A
C188        C907   1.402       .  A
C188        C635   1.466       .  S
C189        C190   1.396       .  A
C189        H194   1.084       .  S
C190        C905   1.399       .  A
C190        C537   1.471       .  S
C191        C192   1.402   1_556  A
C191        C904   1.401       .  A
C191        H195   1.085   1_556  S
C192        C193   1.402       .  A
C192        C520   1.479       .  S
C193        C902   1.405   1_554  A
C193        H196   1.083       .  S
O197       Zr209   2.434       .  S
O197        C199   1.285       .  A
O198       Zr235   2.412       .  S
O198        C199   1.283       .  A
C199        C369   1.464       .  S
O200       Zr212   2.447       .  S
O200        C202   1.288       .  A
O201       Zr236   2.415       .  S
O201        C202   1.284       .  A
C202        C383   1.468       .  S
O203       Zr212   2.447       .  S
O203        C205   1.286       .  A
O204       Zr235   2.400       .  S
O204        C205   1.281       .  A
C205        C394   1.471       .  S
O206       Zr209   2.446       .  S
O206        C208   1.288       .  A
O207       Zr236   2.408       .  S
O207        C208   1.283       .  A
C208        C352   1.468       .  S
Zr209       O210   2.435       .  S
Zr209       O211   2.441       .  S
Zr209       O216   2.372       .  S
Zr209       O239   2.377       .  S
Zr209       O241   2.378       .  S
Zr209       O215   2.276       .  S
O210        H253   0.990       .  S
O211        H252   0.990       .  S
O211        H256   0.990       .  S
Zr212       O213   2.437       .  S
Zr212       O214   2.441       .  S
Zr212       O216   2.374       .  S
Zr212       O240   2.373       .  S
Zr212       O242   2.379       .  S
Zr212       O215   2.275       .  S
O213        H254   0.990       .  S
O213        H257   0.991       .  S
O214        H247   0.990       .  S
O215       Zr235   2.260       .  S
O216       Zr236   2.382       .  S
O216        H243   0.966       .  S
O217       Zr229   2.460       .  S
O217        C219   1.289       .  A
O218       Zr236   2.408       .  S
O218        C219   1.283       .  A
C219        C327   1.474       .  S
O220       Zr232   2.448       .  S
O220        C222   1.287       .  A
O221       Zr235   2.402       .  S
O221        C222   1.281       .  A
C222        C310   1.464       .  S
O223       Zr232   2.461       .  S
O223        C225   1.291       .  A
O224       Zr236   2.398       .  S
O224        C225   1.282       .  A
C225        C296   1.477       .  S
O226       Zr229   2.448       .  S
O226        C228   1.287       .  A
O227       Zr235   2.399       .  S
O227        C228   1.281       .  A
C228        C341   1.471       .  S
Zr229       O230   2.441       .  S
Zr229       O231   2.440       .  S
Zr229       O237   2.371       .  S
Zr229       O241   2.372       .  S
Zr229       O239   2.377       .  S
Zr229       O238   2.280       .  S
O230        H250   0.990       .  S
O230        H255   0.991       .  S
O231        H251   0.990       .  S
Zr232       O233   2.436       .  S
Zr232       O234   2.442       .  S
Zr232       O237   2.368       .  S
Zr232       O242   2.377       .  S
Zr232       O240   2.378       .  S
Zr232       O238   2.278       .  S
O233        H249   0.990       .  S
O234        H248   0.990       .  S
O234        H258   0.991       .  S
Zr235       O240   2.379       .  S
Zr235       O241   2.377       .  S
Zr235       O238   2.267       .  S
Zr236       O237   2.385       .  S
Zr236       O239   2.382       .  S
Zr236       O242   2.386       .  S
O237        H245   0.965       .  S
O240        H244   0.965       .  S
O241        H246   0.967       .  S
C259        C264   1.401       .  A
C259        C974   1.400       .  A
C259        C565   1.469       .  S
C260        C261   1.399       .  A
C260        C973   1.401       .  A
C260        H265   1.084       .  S
C261        C976   1.402       .  A
C261        C397   1.473       .  S
C262        C263   1.401       .  A
C262        C975   1.400       .  A
C262        H266   1.084       .  S
C263        C264   1.402       .  A
C263        C380   1.479       .  S
C264        H267   1.084       .  S
C268        C269   1.398       .  A
C268        C987   1.401       .  A
C268        C425   1.468       .  S
C269        C270   1.397       .  A
C269        H274   1.084       .  S
C270        C271   1.402       .  A
C270        C299   1.474       .  S
C271        C986   1.404       .  A
C271        H275   1.084       .  S
C272        C273   1.402       .  A
C272        C985   1.402       .  A
C272        C313   1.477       .  S
C273        C982   1.400       .  A
C273        H276   1.084       .  S
C277        C282   1.402       .  A
C277        C992   1.404       .  A
C277        C408   1.477       .  S
C278        C279   1.405       .  A
C278        C991   1.403       .  A
C278        H283   1.083       .  S
C279        C994   1.401       .  A
C279        C366   1.482       .  S
C280        C281   1.402       .  A
C280        C993   1.403       .  A
C280        H284   1.084       .  S
C281        C282   1.401       .  A
C281        C355   1.482       .  S
C282        H285   1.083       .  S
C286        C291   1.400       .  A
C286       C1001   1.401       .  A
C286        C674   1.473       .  S
C287        C288   1.399       .  A
C287       C1000   1.399       .  A
C287        H292   1.084       .  S
C288       C1003   1.402       .  A
C288        C338   1.474       .  S
C289        C290   1.405       .  A
C289       C1002   1.404       .  A
C289        H293   1.084       .  S
C290        C291   1.401       .  A
C290        C324   1.484       .  S
C291        H294   1.084       .  S
C295        C296   1.404       .  A
C295        C300   1.400       .  A
C295        H302   1.084       .  S
C296        C297   1.414       .  A
C297        C298   1.396       .  A
C297        N304   1.433       .  S
C298        C299   1.399       .  A
C298        H303   1.085       .  S
C299        C300   1.414       .  A
C300        N301   1.433       .  S
N301        H305   1.044       .  S
N301        H306   1.046       .  S
N304        H307   1.046       .  S
N304        H308   1.045       .  S
C309        C310   1.401       .  A
C309        C314   1.404       .  A
C309        H316   1.084       .  S
C310        C311   1.408       .  A
C311        C312   1.402       .  A
C311        N318   1.438       .  S
C312        C313   1.404       .  A
C312        H317   1.084       .  S
C313        C314   1.411       .  A
C314        N315   1.438       .  S
N315        H319   1.046       .  S
N315        H320   1.046       .  S
N318        H321   1.045       .  S
N318        H322   1.046       .  S
C323        C324   1.404       .  A
C323        C328   1.402       .  A
C323        H330   1.084       .  S
C324        C325   1.415       .  A
C325        C326   1.406       .  A
C325        N332   1.438       .  S
C326        C327   1.401       .  A
C326        H331   1.084       .  S
C327        C328   1.409       .  A
C328        N329   1.437       .  S
N329        H333   1.045       .  S
N329        H334   1.046       .  S
N332        H335   1.046       .  S
N332        H336   1.046       .  S
C337        C338   1.404       .  A
C337        C342   1.404       .  A
C337        H344   1.084       .  S
C338        C339   1.415       .  A
C339        C340   1.398       .  A
C339        N346   1.440       .  S
C340        C341   1.403       .  A
C340        H345   1.083       .  S
C341        C342   1.408       .  A
C342        N343   1.438       .  S
N343        H347   1.045       .  S
N343        H348   1.046       .  S
N346        H349   1.043       .  S
N346        H350   1.045       .  S
C351        C352   1.400       .  A
C351        C356   1.401       .  A
C351        H358   1.082       .  S
C352        C353   1.408       .  A
C353        C354   1.404       .  A
C353        N360   1.438       .  S
C354        C355   1.405       .  A
C354        H359   1.083       .  S
C355        C356   1.413       .  A
C356        N357   1.438       .  S
N357        H361   1.046       .  S
N357        H362   1.045       .  S
N360        H363   1.045       .  S
N360        H364   1.046       .  S
C365        C366   1.407       .  A
C365        C370   1.401       .  A
C365        H372   1.084       .  S
C366        C367   1.413       .  A
C367        C368   1.404       .  A
C367        N374   1.438       .  S
C368        C369   1.401       .  A
C368        H373   1.084       .  S
C369        C370   1.406       .  A
C370        N371   1.438       .  S
N371        H375   1.046       .  S
N371        H376   1.046       .  S
N374        H377   1.046       .  S
N374        H378   1.046       .  S
C379        C380   1.404       .  A
C379        C384   1.398       .  A
C379        H386   1.084       .  S
C380        C381   1.417       .  A
C381        C382   1.400       .  A
C381        N388   1.439       .  S
C382        C383   1.402       .  A
C382        H387   1.085       .  S
C383        C384   1.415       .  A
C384        N385   1.439       .  S
N385        H389   1.046       .  S
N385        H390   1.042       .  S
N388        H391   1.043       .  S
N388        H392   1.046       .  S
C393        C394   1.402       .  A
C393        C398   1.391       .  A
C393        H400   1.085       .  S
C394        C395   1.411       .  A
C395        C396   1.409       .  A
C395        N402   1.437       .  S
C396        C397   1.404       .  A
C396        H401   1.084       .  S
C397        C398   1.411       .  A
C398        N399   1.434       .  S
N399        H403   1.044       .  S
N399        H404   1.046       .  S
N402        H405   1.045       .  S
N402        H406   1.046       .  S
C407        C412   1.398       .  A
C407       C1122   1.400   1_556  A
C407        H414   1.084       .  S
C408        C409   1.413       .  A
C408       C1121   1.402       .  A
C409        C410   1.398       .  A
C409        N416   1.433       .  S
C410        C411   1.404       .  A
C410        H415   1.084       .  S
C411       C1126   1.417       .  A
C412       C1125   1.417   1_556  A
C412        N413   1.439       .  S
N413        H417   1.046       .  S
N413        H418   1.043       .  S
N416        H419   1.046       .  S
N416        H420   1.043       .  S
C421        C426   1.396       .  A
C421       C1136   1.400   1_556  A
C421        H428   1.084       .  S
C422        C423   1.414       .  A
C422       C1135   1.401       .  A
C423        C424   1.397       .  A
C423        N430   1.433       .  S
C424        C425   1.401       .  A
C424        H429   1.084       .  S
C425       C1140   1.411       .  A
C426       C1139   1.412   1_556  A
C426        N427   1.433       .  S
N427        H431   1.045       .  S
N427        H432   1.046   1_556  S
N430        H433   1.044       .  S
N430        H434   1.045       .  S
C435        C436   1.403       .  A
C435        C440   1.408       .  A
C435        H442   1.084       .  S
C436        C437   1.412       .  A
C437        C438   1.400       .  A
C437        N444   1.439   1_655  S
C438        C439   1.404       .  A
C438        H443   1.084       .  S
C439        C440   1.415       .  A
C440        N441   1.437       .  S
N441        H445   1.046       .  S
N441        H446   1.046       .  S
N444        H447   1.046       .  S
N444        H448   1.046       .  S
C449        C450   1.403       .  A
C449        C454   1.406       .  A
C449        H456   1.084       .  S
C450        C451   1.414       .  A
C451        C452   1.402       .  A
C451        N458   1.439   1_655  S
C452        C453   1.403       .  A
C452        H457   1.084       .  S
C453        C454   1.409       .  A
C454        N455   1.432       .  S
N455        H459   1.046       .  S
N455        H460   1.045       .  S
N458        H461   1.046       .  S
N458        H462   1.045       .  S
C463        C464   1.405       .  A
C463        C468   1.404       .  A
C463        H470   1.084       .  S
C464        C465   1.409       .  A
C465        C466   1.404       .  A
C465        N472   1.437   1_655  S
C466        C467   1.401       .  A
C466        H471   1.081   1_655  S
C467        C468   1.408       .  A
C468        N469   1.438       .  S
N469        H473   1.046       .  S
N469        H474   1.046       .  S
N472        H475   1.046       .  S
N472        H476   1.044       .  S
C477        C478   1.402       .  A
C477        C482   1.396       .  A
C477        H484   1.084       .  S
C478        C479   1.413       .  A
C479        C480   1.407       .  A
C479        N486   1.438       .  S
C480        C481   1.402       .  A
C480        H485   1.084       .  S
C481        C482   1.412       .  A
C482        N483   1.433       .  S
N483        H487   1.044       .  S
N483        H488   1.046       .  S
N486        H489   1.045       .  S
N486        H490   1.046       .  S
C491        C492   1.401       .  A
C491        C496   1.396       .  A
C491        H498   1.081       .  S
C492        C493   1.413       .  A
C493        C494   1.412       .  A
C493        N500   1.437       .  S
C494        C495   1.405       .  A
C494        H499   1.083       .  S
C495        C496   1.406       .  A
C496        N497   1.433       .  S
N497        H501   1.046       .  S
N497        H502   1.045       .  S
N500        H503   1.046       .  S
N500        H504   1.046       .  S
C505        C506   1.404       .  A
C505        C510   1.403       .  A
C505        H512   1.084       .  S
C506        C507   1.409       .  A
C507        C508   1.397       .  A
C507        N514   1.434       .  S
C508        C509   1.403       .  A
C508        H513   1.084       .  S
C509        C510   1.417       .  A
C510        N511   1.433       .  S
N511        H515   1.043       .  S
N511        H516   1.045       .  S
N514        H517   1.046       .  S
N514        H518   1.046       .  S
C519        C520   1.402       .  A
C519        C524   1.397       .  A
C519        H526   1.084       .  S
C520        C521   1.414       .  A
C521        C522   1.403       .  A
C521        N528   1.432       .  S
C522        C523   1.406       .  A
C522        H527   1.084       .  S
C523        C524   1.408       .  A
C524        N525   1.433       .  S
N525        H529   1.046       .  S
N525        H530   1.046       .  S
N528        H531   1.045       .  S
N528        H532   1.044       .  S
C533        C534   1.402       .  A
C533        C538   1.395       .  A
C533        H540   1.085       .  S
C534        C535   1.412       .  A
C535        C536   1.406       .  A
C535        N542   1.437       .  S
C536        C537   1.402       .  A
C536        H541   1.084       .  S
C537        C538   1.406       .  A
C538        N539   1.433       .  S
N539        H543   1.046       .  S
N539        H544   1.046       .  S
N542        H545   1.045       .  S
N542        H546   1.046       .  S
C547        C552   1.404       .  A
C547       C1262   1.403   1_556  A
C547        H554   1.084       .  S
C548        C549   1.410       .  A
C548       C1261   1.401       .  A
C549        C550   1.394       .  A
C549        N556   1.433       .  S
C550        C551   1.403       .  A
C550        H555   1.084       .  S
C551       C1266   1.418       .  A
C552       C1265   1.419   1_556  A
C552        N553   1.438       .  S
N553       H1271   1.045       .  S
N553       H1272   1.043       .  S
N556        H559   1.046       .  S
N556       H1274   1.045       .  S
H557       N1267   1.045       .  S
H558       N1267   1.043       .  S
H560       N1270   1.044       .  S
C561        C566   1.398       .  A
C561       C1276   1.403   1_554  A
C561        H568   1.084       .  S
C562        C563   1.415       .  A
C562       C1275   1.405       .  A
C563        C564   1.397       .  A
C563        N570   1.440       .  S
C564        C565   1.401       .  A
C564        H569   1.084       .  S
C565       C1280   1.414       .  A
C566       C1279   1.413       .  A
C566        N567   1.439       .  S
N567        H571   1.046       .  S
N567        H572   1.043       .  S
N570        H573   1.042       .  S
N570        H574   1.046       .  S
C575        C576   1.406       .  A
C575        C580   1.405       .  A
C575        H582   1.084       .  S
C576        C577   1.418       .  A
C577        C578   1.395       .  A
C577        N584   1.434       .  S
C578        C579   1.402       .  A
C578        H583   1.084       .  S
C579        C580   1.417       .  A
C580        N581   1.438       .  S
N581        H585   1.045       .  S
N581        H586   1.043       .  S
N584        H587   1.046       .  S
N584        H588   1.044       .  S
C589        C590   1.398       .  A
C589        C594   1.399       .  A
C589        H596   1.084       .  S
C590        C591   1.408       .  A
C591        C592   1.406       .  A
C591        N598   1.438       .  S
C592        C593   1.403       .  A
C592        H597   1.084       .  S
C593        C594   1.412       .  A
C594        N595   1.439       .  S
N595        H599   1.046       .  S
N595        H600   1.044       .  S
N598        H601   1.045       .  S
N598        H602   1.046       .  S
C603        C604   1.401       .  A
C603        C608   1.400       .  A
C603        H610   1.084       .  S
C604        C605   1.410       .  A
C605        C606   1.406       .  A
C605        N612   1.438       .  S
C606        C607   1.405       .  A
C606        H611   1.084       .  S
C607        C608   1.413       .  A
C608        N609   1.438       .  S
N609        H613   1.046       .  S
N609        H614   1.045       .  S
N612        H615   1.046       .  S
N612        H616   1.046       .  S
C617        C618   1.401       .  A
C617        C622   1.403       .  A
C617        H624   1.084       .  S
C618        C619   1.412       .  A
C619        C620   1.397       .  A
C619        N626   1.433       .  S
C620        C621   1.405       .  A
C620        H625   1.084       .  S
C621        C622   1.413       .  A
C622        N623   1.438       .  S
N623        H627   1.045       .  S
N623        H628   1.046       .  S
N626        H629   1.046       .  S
N626        H630   1.045       .  S
C631        C636   1.399       .  A
C631       C1346   1.403   1_554  A
C631        H638   1.084       .  S
C632        C633   1.410       .  A
C632       C1345   1.402       .  A
C633        C634   1.399       .  A
C633        N640   1.439       .  S
C634        C635   1.401       .  A
C634        H639   1.084       .  S
C635       C1350   1.409       .  A
C636       C1349   1.412   1_554  A
C636        N637   1.432       .  S
N637        H641   1.044       .  S
N637        H642   1.046       .  S
N640        H643   1.046       .  S
N640        H644   1.046       .  S
C645        C646   1.402       .  A
C645        C650   1.397       .  A
C645        H652   1.084       .  S
C646        C647   1.410       .  A
C647        C648   1.406   1_565  A
C647        N654   1.437   1_565  S
C648        C649   1.401   1_545  A
C648        H653   1.084       .  S
C649        C650   1.405       .  A
C650        N651   1.438       .  S
N651        H655   1.046       .  S
N651        H656   1.046       .  S
N654        H657   1.045       .  S
N654        H658   1.046       .  S
C659        C660   1.405       .  A
C659        C664   1.400       .  A
C659        H666   1.084       .  S
C660        C661   1.414       .  A
C661        C662   1.403       .  A
C661        N668   1.438       .  S
C662        C663   1.401       .  A
C662        H667   1.084       .  S
C663        C664   1.412       .  A
C664        N665   1.439       .  S
N665        H669   1.046       .  S
N665        H670   1.046       .  S
N668        H671   1.046   1_565  S
N668        H672   1.046       .  S
C673        C674   1.404       .  A
C673        C678   1.396       .  A
C673        H680   1.084       .  S
C674       C1389   1.416       .  A
C675        C676   1.396       .  A
C675       C1388   1.409       .  A
C675        N682   1.433       .  S
C676       C1391   1.402       .  A
C676        H681   1.084       .  S
C677        C678   1.411       .  A
C677       C1390   1.403       .  A
C678        N679   1.433       .  S
N679        H683   1.044       .  S
N679        H684   1.045       .  S
N682        H685   1.045   1_554  S
N682        H686   1.046       .  S
C687        C688   1.406       .  A
C687        C692   1.397       .  A
C687        H694   1.083       .  S
C688        C689   1.412       .  A
C689        C690   1.399       .  A
C689        N696   1.433       .  S
C690        C691   1.403       .  A
C690        H695   1.084       .  S
C691        C692   1.414       .  A
C692        N693   1.433       .  S
N693        H697   1.045       .  S
N693        H698   1.045       .  S
N696        H699   1.046       .  S
N696        H700   1.046       .  S
C701        C702   1.404       .  A
C701        C706   1.398       .  A
C701        H708   1.084       .  S
C702        C703   1.415       .  A
C703        C704   1.406       .  A
C703        N710   1.438       .  S
C704        C705   1.402       .  A
C704        H709   1.084       .  S
C705        C706   1.407       .  A
C706        N707   1.433       .  S
N707        H711   1.046       .  S
N707        H712   1.045       .  S
N710        H713   1.046       .  S
N710        H714   1.046       .  S
C715        C716   1.400   1_554  A
C715       C1391   1.468       .  S
C716        C717   1.401       .  A
C716        H721   1.084       .  S
C717       C1419   1.479       .  S
C718        C719   1.403       .  A
C718        H722   1.083       .  S
C719        C720   1.402       .  A
C719       C1402   1.482       .  S
C720        H723   1.084       .  S
C724        C729   1.403       .  A
C724       C1346   1.475       .  S
C725        C726   1.395       .  A
C725        H730   1.085       .  S
C726        C727   1.400       .  A
C726       C1360   1.465       .  S
C727        H731   1.084       .  S
C728        C729   1.403       .  A
C728       C1377   1.480       .  S
C729        H732   1.084       .  S
O733       Zr745   2.447   1_565  S
O733        C735   1.289   1_565  A
O734       Zr771   2.416       .  S
O734        C735   1.285       .  A
C735       C1374   1.485   1_545  S
O736       Zr748   2.455       .  S
O736        C738   1.290       .  A
O737       Zr772   2.400   1_565  S
O737        C738   1.282       .  A
C738       C1405   1.474       .  S
O739       Zr748   2.445       .  S
O739        C741   1.288       .  A
O740       Zr771   2.409   1_565  S
O740        C741   1.284       .  A
C741       C1416   1.480       .  S
O742       Zr745   2.440   1_565  S
O742        C744   1.285       .  A
O743       Zr772   2.398       .  S
O743        C744   1.281   1_545  A
C744       C1363   1.455       .  S
Zr745       O746   2.434   1_545  S
Zr745       O747   2.436       .  S
Zr745       O751   2.376   1_545  S
Zr745       O752   2.376   1_545  S
Zr745       O775   2.376       .  S
Zr745       O777   2.370       .  S
O746        H789   0.990       .  S
O747        H788   0.990       .  S
O747        H792   0.990       .  S
Zr748       O749   2.435       .  S
Zr748       O750   2.434       .  S
Zr748       O752   2.372       .  S
Zr748       O751   2.380       .  S
Zr748       O776   2.373   1_565  S
Zr748       O778   2.374   1_565  S
O749        H790   0.990       .  S
O749        H793   0.990       .  S
O750        H783   0.990       .  S
O751       Zr771   2.376   1_565  S
O752       Zr772   2.376   1_565  S
O752        H779   0.967       .  S
O753       Zr765   2.449       .  S
O753        C755   1.290       .  A
O754       Zr772   2.396       .  S
O754        C755   1.281       .  A
C755       C1321   1.480       .  S
O756       Zr768   2.452       .  S
O756        C758   1.289       .  A
O757       Zr771   2.397       .  S
O757        C758   1.281       .  A
C758       C1304   1.461       .  S
O759       Zr768   2.456       .  S
O759        C761   1.291       .  A
O760       Zr772   2.409       .  S
O760        C761   1.283       .  A
C761       C1290   1.485       .  S
O762       Zr765   2.446       .  S
O762        C764   1.288       .  A
O763       Zr771   2.414       .  S
O763        C764   1.284       .  A
C764       C1332   1.472       .  S
Zr765       O766   2.434       .  S
Zr765       O767   2.433       .  S
Zr765       O773   2.367       .  S
Zr765       O774   2.373       .  S
Zr765       O777   2.376       .  S
Zr765       O775   2.376       .  S
O766        H786   0.990       .  S
O766        H791   0.990       .  S
O767        H787   0.990       .  S
Zr768       O769   2.434       .  S
Zr768       O770   2.435       .  S
Zr768       O774   2.379       .  S
Zr768       O773   2.368       .  S
Zr768       O778   2.374       .  S
Zr768       O776   2.375       .  S
O769        H785   0.990       .  S
O770        H784   0.990       .  S
O770        H794   0.990       .  S
Zr771       O774   2.375       .  S
Zr771       O776   2.383       .  S
Zr771       O777   2.377       .  S
Zr772       O773   2.371       .  S
Zr772       O775   2.376       .  S
Zr772       O778   2.372       .  S
O773        H781   0.965       .  S
O776        H780   0.967       .  S
O777        H782   0.965       .  S
C795        C800   1.403       .  A
C795       C1276   1.474       .  S
C796        C797   1.400       .  A
C796        H801   1.084       .  S
C797        C798   1.401       .  A
C797       C1318   1.478       .  S
C798        H802   1.084       .  S
C799        C800   1.404       .  A
C799       C1335   1.485       .  S
C800        H803   1.084       .  S
C804        C805   1.404       .  A
C804        C809   1.406       .  A
C804       C1293   1.483       .  S
C805        H810   1.084       .  S
C806        C807   1.398       .  A
C806       C1307   1.474       .  S
C807        C808   1.402       .  A
C807        H811   1.084       .  S
C808       C1265   1.483   1_556  S
C809        H812   1.084       .  S
O813       Zr825   2.450       .  S
O813        C815   1.289       .  A
O814       Zr851   2.408       .  S
O814        C815   1.284       .  A
C815       C1220   1.476       .  S
O816       Zr828   2.438       .  S
O816        C818   1.286       .  A
O817       Zr852   2.411       .  S
O817        C818   1.284       .  A
C818       C1237   1.469       .  S
O819       Zr828   2.443       .  S
O819        C821   1.287       .  A
O820       Zr851   2.408       .  S
O820        C821   1.284       .  A
C821       C1248   1.473       .  S
O822       Zr825   2.453       .  S
O822        C824   1.289       .  A
O823       Zr852   2.407       .  S
O823        C824   1.284       .  A
C824       C1206   1.472       .  S
Zr825       O826   2.434       .  S
Zr825       O827   2.435       .  S
Zr825       O831   2.376       .  S
Zr825       O832   2.372       .  S
Zr825       O855   2.375       .  S
Zr825       O857   2.378       .  S
O826        H869   0.990       .  S
O827        H868   0.990       .  S
O827        H872   0.990       .  S
Zr828       O829   2.435       .  S
Zr828       O830   2.434       .  S
Zr828       O832   2.371       .  S
Zr828       O831   2.373       .  S
Zr828       O856   2.366       .  S
Zr828       O858   2.376       .  S
O829        H870   0.990       .  S
O829        H873   0.990       .  S
O830        H863   0.990       .  S
O831       Zr851   2.375       .  S
O832       Zr852   2.376       .  S
O832        H859   0.965       .  S
O833       Zr845   2.448       .  S
O833        C835   1.288       .  A
O834       Zr852   2.409       .  S
O834        C835   1.284   1_455  A
C835       C1181   1.471       .  S
O836       Zr848   2.458       .  S
O836        C838   1.291       .  A
O837       Zr851   2.412   1_655  S
O837        C838   1.285       .  A
C838       C1164   1.480       .  S
O839       Zr848   2.446       .  S
O839        C841   1.288       .  A
O840       Zr852   2.411   1_655  S
O840        C841   1.285       .  A
C841       C1150   1.474       .  S
O842       Zr845   2.450       .  S
O842        C844   1.289       .  A
O843       Zr851   2.411   1_655  S
O843        C844   1.285       .  A
C844       C1192   1.480       .  S
Zr845       O846   2.435       .  S
Zr845       O847   2.434       .  S
Zr845       O853   2.373       .  S
Zr845       O854   2.376       .  S
Zr845       O857   2.374   1_655  S
Zr845       O855   2.379   1_655  S
O846        H866   0.990       .  S
O846        H871   0.990       .  S
O847        H867   0.990   1_655  S
Zr848       O849   2.434       .  S
Zr848       O850   2.435       .  S
Zr848       O854   2.373       .  S
Zr848       O853   2.374       .  S
Zr848       O858   2.379   1_655  S
Zr848       O856   2.371   1_655  S
O849        H865   0.990       .  S
O850        H864   0.990       .  S
O850        H874   0.990       .  S
Zr851       O854   2.374   1_455  S
Zr851       O856   2.375       .  S
Zr851       O857   2.380       .  S
Zr852       O853   2.379   1_455  S
Zr852       O855   2.374       .  S
Zr852       O858   2.376       .  S
O853        H861   0.966       .  S
O856        H860   0.967       .  S
O857        H862   0.966       .  S
C875        C880   1.401   1_554  A
C875       C1136   1.466       .  S
C876        C877   1.396       .  A
C876        H881   1.084       .  S
C877        C878   1.401       .  A
C877       C1209   1.473       .  S
C878        H882   1.085       .  S
C879        C880   1.402       .  A
C879       C1223   1.483       .  S
C880        H883   1.082       .  S
C884        C885   1.403       .  A
C884        C889   1.401       .  A
C884       C1178   1.482       .  S
C885        H890   1.084       .  S
C886        C887   1.406       .  A
C886       C1195   1.483       .  S
C887        C888   1.407   1_556  A
C887        H891   1.084       .  S
C888       C1262   1.479       .  S
C889        H892   1.084       .  S
C893        C894   1.405       .  A
C893       C1125   1.475   1_556  S
C894        C895   1.404       .  A
C894        H899   1.083       .  S
C895       C1167   1.487       .  S
C896        C897   1.403       .  A
C896        H900   1.084       .  S
C897        C898   1.402       .  A
C897       C1153   1.484       .  S
C898        H901   1.084       .  S
C902        C903   1.402       .  A
C902       C1349   1.473       .  S
C903        C904   1.399       .  A
C903        H908   1.084       .  S
C904       C1251   1.476       .  S
C905        C906   1.401       .  A
C905        H909   1.085       .  S
C906        C907   1.401       .  A
C906       C1234   1.474       .  S
C907        H910   1.084       .  S
O911       Zr923   2.445       .  S
O911        C913   1.287       .  A
O912       Zr949   2.413       .  S
O912        C913   1.284       .  A
C913       C1083   1.471       .  S
O914       Zr926   2.443       .  S
O914        C916   1.287       .  A
O915       Zr950   2.413       .  S
O915        C916   1.284       .  A
C916       C1097   1.467       .  S
O917       Zr926   2.444       .  S
O917        C919   1.287       .  A
O918       Zr949   2.403       .  S
O918        C919   1.283       .  A
C919       C1108   1.470       .  S
O920       Zr923   2.446       .  S
O920        C922   1.288       .  A
O921       Zr950   2.403       .  S
O921        C922   1.283       .  A
C922       C1066   1.465       .  S
Zr923       O924   2.434       .  S
Zr923       O925   2.434       .  S
Zr923       O929   2.369       .  S
Zr923       O930   2.376       .  S
Zr923       O953   2.382       .  S
Zr923       O955   2.379       .  S
O924        H967   0.990       .  S
O925        H966   0.990       .  S
O925        H970   0.990       .  S
Zr926       O927   2.437       .  S
Zr926       O928   2.435       .  S
Zr926       O930   2.369       .  S
Zr926       O929   2.370       .  S
Zr926       O954   2.375       .  S
Zr926       O956   2.378       .  S
O927        H968   0.990       .  S
O927        H971   0.990       .  S
O928        H961   0.990       .  S
O929       Zr949   2.365       .  S
O930       Zr950   2.377       .  S
O930        H957   0.966       .  S
O931       Zr943   2.462       .  S
O931        C933   1.290       .  A
O932       Zr950   2.404       .  S
O932        C933   1.282       .  A
C933       C1041   1.475       .  S
O934       Zr946   2.442       .  S
O934        C936   1.286       .  A
O935       Zr949   2.406       .  S
O935        C936   1.282       .  A
C936       C1024   1.465       .  S
O937       Zr946   2.455       .  S
O937        C939   1.290       .  A
O938       Zr950   2.404       .  S
O938        C939   1.283       .  A
C939       C1010   1.478       .  S
O940       Zr943   2.452       .  S
O940        C942   1.289       .  A
O941       Zr949   2.390       .  S
O941        C942   1.280       .  A
C942       C1055   1.472       .  S
Zr943       O944   2.440       .  S
Zr943       O945   2.440       .  S
Zr943       O951   2.370       .  S
Zr943       O955   2.373       .  S
Zr943       O953   2.379       .  S
Zr943       O952   2.277       .  S
O944        H964   0.990       .  S
O944        H969   0.991       .  S
O945        H965   0.990       .  S
Zr946       O947   2.434       .  S
Zr946       O948   2.442       .  S
Zr946       O951   2.370       .  S
Zr946       O956   2.371       .  S
Zr946       O954   2.377       .  S
Zr946       O952   2.276       .  S
O947        H963   0.990       .  S
O948        H962   0.991       .  S
O948        H972   0.990       .  S
Zr949       O954   2.378       .  S
Zr949       O955   2.378       .  S
Zr949       O952   2.265       .  S
Zr950       O951   2.381       .  S
Zr950       O953   2.382       .  S
Zr950       O956   2.379       .  S
O951        H959   0.965       .  S
O954        H958   0.965       .  S
O955        H960   0.967       .  S
C973        C978   1.400   1_554  A
C973       C1279   1.471       .  S
C974        C975   1.398       .  A
C974        H979   1.084       .  S
C975       C1111   1.471       .  S
C976        C977   1.402   1_554  A
C976        H980   1.084       .  S
C977        C978   1.404       .  A
C977       C1094   1.483       .  S
C978        H981   1.084       .  S
C982        C983   1.399   1_554  A
C982       C1139   1.467       .  S
C983        C984   1.398       .  A
C983        H988   1.084       .  S
C984        C985   1.401   1_556  A
C984       C1013   1.472       .  S
C985        H989   1.084       .  S
C986        C987   1.404       .  A
C986       C1027   1.484       .  S
C987        H990   1.084       .  S
C991        C996   1.401   1_554  A
C991       C1122   1.472       .  S
C992        C993   1.404       .  A
C992        H997   1.083       .  S
C993       C1080   1.487       .  S
C994        C995   1.401   1_554  A
C994        H998   1.084   1_554  S
C995        C996   1.400       .  A
C995       C1069   1.480       .  S
C996        H999   1.084       .  S
C1000      C1005   1.399   1_554  A
C1000      C1388   1.466       .  S
C1001      C1002   1.400       .  A
C1001      H1006   1.084       .  S
C1002      C1052   1.478       .  S
C1003      C1004   1.405   1_554  A
C1003      H1007   1.084       .  S
C1004      C1005   1.402       .  A
C1004      C1038   1.484       .  S
C1005      H1008   1.084       .  S
C1009      C1010   1.405       .  A
C1009      C1014   1.401       .  A
C1009      H1016   1.084       .  S
C1010      C1011   1.413       .  A
C1011      C1012   1.397       .  A
C1011      N1018   1.433       .  S
C1012      C1013   1.399       .  A
C1012      H1017   1.085       .  S
C1013      C1014   1.413       .  A
C1014      N1015   1.433       .  S
N1015      H1019   1.044       .  S
N1015      H1020   1.045       .  S
N1018      H1021   1.045       .  S
N1018      H1022   1.045       .  S
C1023      C1024   1.400       .  A
C1023      C1028   1.403       .  A
C1023      H1030   1.084       .  S
C1024      C1025   1.408       .  A
C1025      C1026   1.403       .  A
C1025      N1032   1.438       .  S
C1026      C1027   1.406       .  A
C1026      H1031   1.083       .  S
C1027      C1028   1.413       .  A
C1028      N1029   1.438       .  S
N1029      H1033   1.045       .  S
N1029      H1034   1.046       .  S
N1032      H1035   1.045       .  S
N1032      H1036   1.046       .  S
C1037      C1038   1.404       .  A
C1037      C1042   1.403       .  A
C1037      H1044   1.084       .  S
C1038      C1039   1.415       .  A
C1039      C1040   1.405       .  A
C1039      N1046   1.438       .  S
C1040      C1041   1.401       .  A
C1040      H1045   1.084       .  S
C1041      C1042   1.410       .  A
C1042      N1043   1.437       .  S
N1043      H1047   1.046       .  S
N1043      H1048   1.046       .  S
N1046      H1049   1.046       .  S
N1046      H1050   1.045       .  S
C1051      C1052   1.406       .  A
C1051      C1056   1.405       .  A
C1051      H1058   1.084       .  S
C1052      C1053   1.416       .  A
C1053      C1054   1.397       .  A
C1053      N1060   1.440       .  S
C1054      C1055   1.404       .  A
C1054      H1059   1.085       .  S
C1055      C1056   1.408       .  A
C1056      N1057   1.438       .  S
N1057      H1061   1.046       .  S
N1057      H1062   1.046       .  S
N1060      H1063   1.043       .  S
N1060      H1064   1.046       .  S
C1065      C1066   1.398       .  A
C1065      C1070   1.399       .  A
C1065      H1072   1.082       .  S
C1066      C1067   1.409       .  A
C1067      C1068   1.405       .  A
C1067      N1074   1.438       .  S
C1068      C1069   1.405       .  A
C1068      H1073   1.083       .  S
C1069      C1070   1.412       .  A
C1070      N1071   1.438       .  S
N1071      H1075   1.046       .  S
N1071      H1076   1.045       .  S
N1074      H1077   1.044       .  S
N1074      H1078   1.046       .  S
C1079      C1080   1.406       .  A
C1079      C1084   1.401       .  A
C1079      H1086   1.084       .  S
C1080      C1081   1.415       .  A
C1081      C1082   1.406       .  A
C1081      N1088   1.438       .  S
C1082      C1083   1.402       .  A
C1082      H1087   1.084       .  S
C1083      C1084   1.407       .  A
C1084      N1085   1.438       .  S
N1085      H1089   1.046       .  S
N1085      H1090   1.046       .  S
N1088      H1091   1.046       .  S
N1088      H1092   1.046       .  S
C1093      C1094   1.405       .  A
C1093      C1098   1.397       .  A
C1093      H1100   1.084       .  S
C1094      C1095   1.419       .  A
C1095      C1096   1.402       .  A
C1095      N1102   1.439       .  S
C1096      C1097   1.402       .  A
C1096      H1101   1.085       .  S
C1097      C1098   1.414       .  A
C1098      N1099   1.439       .  S
N1099      H1103   1.046       .  S
N1099      H1104   1.042       .  S
N1102      H1105   1.043       .  S
N1102      H1106   1.046       .  S
C1107      C1108   1.403       .  A
C1107      C1112   1.392       .  A
C1107      H1114   1.085       .  S
C1108      C1109   1.410       .  A
C1109      C1110   1.406       .  A
C1109      N1116   1.437       .  S
C1110      C1111   1.403       .  A
C1110      H1115   1.084       .  S
C1111      C1112   1.412       .  A
C1112      N1113   1.434       .  S
N1113      H1117   1.043       .  S
N1113      H1118   1.045       .  S
N1116      H1119   1.045       .  S
N1116      H1120   1.046       .  S
C1121      C1126   1.399       .  A
C1121      H1128   1.084       .  S
C1122      C1123   1.410       .  A
C1123      C1124   1.400       .  A
C1123      N1130   1.432       .  S
C1124      C1125   1.405       .  A
C1124      H1129   1.084       .  S
C1126      N1127   1.438       .  S
N1127      H1131   1.046       .  S
N1127      H1132   1.042       .  S
N1130      H1133   1.045       .  S
N1130      H1134   1.046       .  S
C1135      C1140   1.394       .  A
C1135      H1142   1.084       .  S
C1136      C1137   1.411       .  A
C1137      C1138   1.397       .  A
C1137      N1144   1.432       .  S
C1138      C1139   1.400       .  A
C1138      H1143   1.084       .  S
C1140      N1141   1.433       .  S
N1141      H1145   1.046       .  S
N1141      H1146   1.045       .  S
N1144      H1147   1.046   1_554  S
N1144      H1148   1.045       .  S
C1149      C1150   1.404       .  A
C1149      C1154   1.408       .  A
C1149      H1156   1.084       .  S
C1150      C1151   1.410       .  A
C1151      C1152   1.400       .  A
C1151      N1158   1.439   1_655  S
C1152      C1153   1.404       .  A
C1152      H1157   1.084       .  S
C1153      C1154   1.414       .  A
C1154      N1155   1.438       .  S
N1155      H1159   1.046       .  S
N1155      H1160   1.045       .  S
N1158      H1161   1.046       .  S
N1158      H1162   1.046       .  S
C1163      C1164   1.404       .  A
C1163      C1168   1.408       .  A
C1163      H1170   1.084       .  S
C1164      C1165   1.413       .  A
C1165      C1166   1.402       .  A
C1165      N1172   1.439   1_655  S
C1166      C1167   1.404       .  A
C1166      H1171   1.084       .  S
C1167      C1168   1.411       .  A
C1168      N1169   1.432       .  S
N1169      H1173   1.045       .  S
N1169      H1174   1.046       .  S
N1172      H1175   1.046       .  S
N1172      H1176   1.046       .  S
C1177      C1178   1.406       .  A
C1177      C1182   1.405       .  A
C1177      H1184   1.083       .  S
C1178      C1179   1.410       .  A
C1179      C1180   1.402       .  A
C1179      N1186   1.437   1_655  S
C1180      C1181   1.401       .  A
C1180      H1185   1.080   1_655  S
C1181      C1182   1.408       .  A
C1182      N1183   1.438       .  S
N1183      H1187   1.046       .  S
N1183      H1188   1.046       .  S
N1186      H1189   1.045       .  S
N1186      H1190   1.044       .  S
C1191      C1192   1.404       .  A
C1191      C1196   1.396       .  A
C1191      H1198   1.085       .  S
C1192      C1193   1.413       .  A
C1193      C1194   1.410       .  A
C1193      N1200   1.437       .  S
C1194      C1195   1.404       .  A
C1194      H1199   1.084       .  S
C1195      C1196   1.415       .  A
C1196      N1197   1.433       .  S
N1197      H1201   1.043       .  S
N1197      H1202   1.045       .  S
N1200      H1203   1.045       .  S
N1200      H1204   1.046       .  S
C1205      C1206   1.400       .  A
C1205      C1210   1.396       .  A
C1205      H1212   1.080       .  S
C1206      C1207   1.412       .  A
C1207      C1208   1.410       .  A
C1207      N1214   1.437       .  S
C1208      C1209   1.403       .  A
C1208      H1213   1.083       .  S
C1209      C1210   1.404       .  A
C1210      N1211   1.432       .  S
N1211      H1215   1.045       .  S
N1211      H1216   1.046       .  S
N1214      H1217   1.046       .  S
N1214      H1218   1.046       .  S
C1219      C1220   1.404       .  A
C1219      C1224   1.402       .  A
C1219      H1226   1.084       .  S
C1220      C1221   1.410       .  A
C1221      C1222   1.398       .  A
C1221      N1228   1.434       .  S
C1222      C1223   1.404       .  A
C1222      H1227   1.084       .  S
C1223      C1224   1.417       .  A
C1224      N1225   1.433       .  S
N1225      H1229   1.043       .  S
N1225      H1230   1.045       .  S
N1228      H1231   1.046       .  S
N1228      H1232   1.045       .  S
C1233      C1234   1.403       .  A
C1233      C1238   1.397       .  A
C1233      H1240   1.084       .  S
C1234      C1235   1.413       .  A
C1235      C1236   1.400       .  A
C1235      N1242   1.432       .  S
C1236      C1237   1.404       .  A
C1236      H1241   1.084       .  S
C1237      C1238   1.407       .  A
C1238      N1239   1.434       .  S
N1239      H1243   1.046       .  S
N1239      H1244   1.046       .  S
N1242      H1245   1.045       .  S
N1242      H1246   1.044       .  S
C1247      C1248   1.402       .  A
C1247      C1252   1.395       .  A
C1247      H1254   1.085       .  S
C1248      C1249   1.414       .  A
C1249      C1250   1.408       .  A
C1249      N1256   1.437       .  S
C1250      C1251   1.403       .  A
C1250      H1255   1.084       .  S
C1251      C1252   1.408       .  A
C1252      N1253   1.433       .  S
N1253      H1257   1.046       .  S
N1253      H1258   1.046       .  S
N1256      H1259   1.045       .  S
N1256      H1260   1.046       .  S
C1261      C1266   1.403       .  A
C1261      H1268   1.084       .  S
C1262      C1263   1.414       .  A
C1263      C1264   1.395       .  A
C1263      N1270   1.433       .  S
C1264      C1265   1.403       .  A
C1264      H1269   1.084       .  S
C1266      N1267   1.438       .  S
N1270      H1273   1.045       .  S
C1275      C1280   1.400       .  A
C1275      H1282   1.084       .  S
C1276      C1277   1.415       .  A
C1277      C1278   1.401       .  A
C1277      N1284   1.439       .  S
C1278      C1279   1.403   1_556  A
C1278      H1283   1.084       .  S
C1280      N1281   1.439       .  S
N1281      H1285   1.046       .  S
N1281      H1286   1.043       .  S
N1284      H1287   1.043       .  S
N1284      H1288   1.046       .  S
C1289      C1290   1.406       .  A
C1289      C1294   1.404       .  A
C1289      H1296   1.084       .  S
C1290      C1291   1.419       .  A
C1291      C1292   1.396       .  A
C1291      N1298   1.434       .  S
C1292      C1293   1.403       .  A
C1292      H1297   1.084       .  S
C1293      C1294   1.417       .  A
C1294      N1295   1.438       .  S
N1295      H1299   1.045       .  S
N1295      H1300   1.043       .  S
N1298      H1301   1.045       .  S
N1298      H1302   1.044       .  S
C1303      C1304   1.398       .  A
C1303      C1308   1.401       .  A
C1303      H1310   1.084       .  S
C1304      C1305   1.408       .  A
C1305      C1306   1.407       .  A
C1305      N1312   1.438       .  S
C1306      C1307   1.403       .  A
C1306      H1311   1.084       .  S
C1307      C1308   1.412       .  A
C1308      N1309   1.439       .  S
N1309      H1313   1.045       .  S
N1309      H1314   1.044       .  S
N1312      H1315   1.046       .  S
N1312      H1316   1.045       .  S
C1317      C1318   1.400       .  A
C1317      C1322   1.398       .  A
C1317      H1324   1.084       .  S
C1318      C1319   1.410       .  A
C1319      C1320   1.406       .  A
C1319      N1326   1.438       .  S
C1320      C1321   1.406       .  A
C1320      H1325   1.084       .  S
C1321      C1322   1.416       .  A
C1322      N1323   1.439       .  S
N1323      H1327   1.046       .  S
N1323      H1328   1.045       .  S
N1326      H1329   1.046       .  S
N1326      H1330   1.046       .  S
C1331      C1332   1.402       .  A
C1331      C1336   1.406       .  A
C1331      H1338   1.084       .  S
C1332      C1333   1.412       .  A
C1333      C1334   1.398       .  A
C1333      N1340   1.433       .  S
C1334      C1335   1.405       .  A
C1334      H1339   1.084       .  S
C1335      C1336   1.413       .  A
C1336      N1337   1.438       .  S
N1337      H1341   1.045       .  S
N1337      H1342   1.046       .  S
N1340      H1343   1.046       .  S
N1340      H1344   1.045       .  S
C1345      C1350   1.397       .  A
C1345      H1352   1.084       .  S
C1346      C1347   1.408       .  A
C1347      C1348   1.398       .  A
C1347      N1354   1.433       .  S
C1348      C1349   1.402       .  A
C1348      H1353   1.084       .  S
C1350      N1351   1.432       .  S
N1351      H1355   1.045       .  S
N1351      H1356   1.046       .  S
N1354      H1357   1.046       .  S
N1354      H1358   1.046       .  S
C1359      C1360   1.402       .  A
C1359      C1364   1.397       .  A
C1359      H1366   1.084       .  S
C1360      C1361   1.408       .  A
C1361      C1362   1.404   1_565  A
C1361      N1368   1.437   1_565  S
C1362      C1363   1.401   1_545  A
C1362      H1367   1.084       .  S
C1363      C1364   1.405       .  A
C1364      N1365   1.438       .  S
N1365      H1369   1.046       .  S
N1365      H1370   1.046       .  S
N1368      H1371   1.045       .  S
N1368      H1372   1.046       .  S
C1373      C1374   1.406       .  A
C1373      C1378   1.403       .  A
C1373      H1380   1.084       .  S
C1374      C1375   1.415       .  A
C1375      C1376   1.407       .  A
C1375      N1382   1.438   1_565  S
C1376      C1377   1.402       .  A
C1376      H1381   1.084       .  S
C1377      C1378   1.411       .  A
C1378      N1379   1.439       .  S
N1379      H1383   1.046       .  S
N1379      H1384   1.046       .  S
N1382      H1385   1.046       .  S
N1382      H1386   1.046   1_545  S
C1387      C1388   1.401       .  A
C1387      C1392   1.397       .  A
C1387      H1394   1.084       .  S
C1389      C1390   1.397       .  A
C1389      N1396   1.438       .  S
C1390      H1395   1.084       .  S
C1391      C1392   1.410       .  A
C1392      N1393   1.432   1_554  S
N1393      H1397   1.046       .  S
N1393      H1398   1.045   1_556  S
N1396      H1399   1.042       .  S
N1396      H1400   1.046       .  S
C1401      C1402   1.406       .  A
C1401      C1406   1.398       .  A
C1401      H1408   1.084       .  S
C1402      C1403   1.409       .  A
C1403      C1404   1.400       .  A
C1403      N1410   1.433       .  S
C1404      C1405   1.404       .  A
C1404      H1409   1.084       .  S
C1405      C1406   1.412       .  A
C1406      N1407   1.432       .  S
N1407      H1411   1.045       .  S
N1407      H1412   1.046       .  S
N1410      H1413   1.046       .  S
N1410      H1414   1.046       .  S
C1415      C1416   1.405       .  A
C1415      C1420   1.399       .  A
C1415      H1422   1.084       .  S
C1416      C1417   1.414       .  A
C1417      C1418   1.406       .  A
C1417      N1424   1.438       .  S
C1418      C1419   1.403       .  A
C1418      H1423   1.084       .  S
C1419      C1420   1.408       .  A
C1420      N1421   1.433       .  S
N1421      H1425   1.046       .  S
N1421      H1426   1.046       .  S
N1424      H1427   1.046       .  S
N1424      H1428   1.046       .  S
