geometry optimzed in LAMMPS
_audit_creation_date              2020-12-01 
_audit_creation_method            'lammps2cif' 
_symmetry_space_group_name_H-M    'P1' 
_symmetry_Int_Tables_number       1 
_symmetry_cell_setting            triclinic 
loop_ 
_symmetry_equiv_pos_as_xyz 
  x,y,z 
_cell_length_a                    19.69835703 
_cell_length_b                    23.046871407114562 
_cell_length_c                    37.341387526865674 
_cell_angle_alpha                 89.70510944867718 
_cell_angle_beta                  91.27294558307283 
_cell_angle_gamma                 98.40512403271765 
loop_ 
_atom_site_label 
_atom_site_type_symbol 
_atom_site_fract_x 
_atom_site_fract_y 
_atom_site_fract_z 
_atom_site_charge 
O1          O  0.19158485  0.18930910  0.04043899    -0.72200
O2          O  0.19386867  0.29532505  0.45982021    -0.72300
O3          O  0.19138145  0.17638410  0.46727357    -0.72300
O4          O  0.19182477  0.30794748  0.03301648    -0.72400
O5          O  0.30163503  0.30265326  0.04144598    -0.72300
O6          O  0.30152747  0.20423372  0.46053479    -0.72300
O7          O  0.30448942  0.32323916  0.47042790    -0.72200
O8          O  0.30026774  0.18521518  0.02964134    -0.72300
Ni9        Ni  0.18352067  0.24076179  0.00037484     1.25400
Ni10       Ni  0.30878175  0.25534025  0.50078049     1.25400
C11         C  0.24649751  0.16694457  0.04716725     0.91200
C12         C  0.24904491  0.32993608  0.45313216     0.89900
C13         C  0.24760716  0.16942615  0.45197941     0.89900
C14         C  0.24835381  0.32466803  0.05040338     0.90100
C15         C  0.24690440  0.11817674  0.07539192    -0.00300
C16         C  0.25539334  0.37165481  0.08106248    -0.00300
C17         C  0.00443393  0.12618417  0.16886436    -0.00300
C18         C  0.00819953  0.37423012  0.17577744    -0.00300
O19         O  0.44667032  0.43308470  0.28107249    -0.72200
O20         O  0.44644444  0.06298867  0.21587781    -0.72300
O21         O  0.45237027  0.44563218  0.20903203    -0.72300
O22         O  0.44529619  0.05273797  0.28696170    -0.72400
O23         O  0.05629715  0.08057540  0.28322112    -0.72300
O24         O  0.06169999  0.44460624  0.22231295    -0.72300
O25         O  0.05742693  0.06241170  0.21109049    -0.72200
O26         O  0.05627840  0.46274497  0.29401069    -0.72300
Ni27       Ni  0.44318848  0.99783958  0.24828379     1.25400
Ni28       Ni  0.06267512  0.01342016  0.25272014     1.25400
C29         C  0.50096758  0.42756027  0.29966503     0.90000
C30         C  0.00222364  0.08147160  0.20022978     0.89900
C31         C  0.50811315  0.42452057  0.20359970     0.89900
C32         C  0.49866621  0.08777816  0.29671935     0.90100
C33         C  0.24963033  0.12149108  0.42272422    -0.00300
C34         C  0.25045920  0.37851016  0.42439045    -0.00300
C35         C  0.49580018  0.13562722  0.32597857    -0.00300
C36         C  0.49780275  0.37865476  0.32810580    -0.00300
C37         C  0.42726607  0.22007094  0.30362578     0.25800
C38         C  0.48987191  0.19578511  0.30665665    -0.22300
C39         C  0.04615544  0.23220121  0.29232464     0.20700
C40         C  0.04650337  0.29361903  0.29208146     0.25700
C41         C  0.49088627  0.31845473  0.30679482    -0.22200
C42         C  0.42798822  0.28089551  0.30371926     0.20600
F43         F  0.36738543  0.30247644  0.30248183    -0.12200
F44         F  0.36557036  0.18647931  0.29909374    -0.14600
F45         F  0.09644758  0.32630904  0.27377933    -0.14600
F46         F  0.10274966  0.20975628  0.28222234    -0.12200
C47         C  0.06158275  0.38079353  0.39142002     0.25800
C48         C  0.06456543  0.38453292  0.35342607    -0.22300
C49         C  0.13155107  0.38647594  0.33985416     0.20700
C50         C  0.18667551  0.37347494  0.36104241     0.25700
C51         C  0.18368048  0.37029468  0.39903645    -0.22200
C52         C  0.11647938  0.36713736  0.41247592     0.20600
F53         F  0.09988203  0.34728791  0.44573443    -0.12200
F54         F  0.00770436  0.39396135  0.41011208    -0.14600
F55         F  0.24099924  0.36062480  0.34257967    -0.14600
F56         F  0.14800333  0.40575620  0.30650652    -0.12200
C57         C  0.39613148  0.42851919  0.35568186     0.25800
C58         C  0.43228461  0.37979595  0.35234326    -0.22300
C59         C  0.40874178  0.33106485  0.37436486     0.20700
C60         C  0.35151850  0.32950039  0.39615667     0.25700
C61         C  0.31615294  0.37843941  0.40011451    -0.22200
C62         C  0.33929763  0.42714746  0.37793053     0.20600
F63         F  0.30321242  0.47275832  0.37564552    -0.12200
F64         F  0.41546426  0.47946486  0.33853014    -0.14600
F65         F  0.33001541  0.27765624  0.41166391    -0.14600
F66         F  0.44416798  0.28501490  0.37647669    -0.12200
C67         C  0.16987728  0.17769966  0.38309530     0.25800
C68         C  0.18241996  0.12345589  0.39801213    -0.22300
C69         C  0.13422918  0.07403186  0.38712442     0.20700
C70         C  0.07589458  0.07973638  0.36560981     0.25700
C71         C  0.06325349  0.13394676  0.35067605    -0.22200
C72         C  0.11174991  0.18335730  0.36132853     0.20600
F73         F  0.09981027  0.23896919  0.35560856    -0.12200
F74         F  0.21391601  0.22723613  0.39011004    -0.14600
F75         F  0.03191127  0.03017072  0.35868523    -0.14600
F76         F  0.14671862  0.01840477  0.39234800    -0.12200
C77         C  0.38124575  0.15881881  0.40638682     0.25800
C78         C  0.31351919  0.13103021  0.39701406    -0.22300
C79         C  0.30901497  0.09911983  0.36447092     0.20700
C80         C  0.36482746  0.09730260  0.34240586     0.25700
C81         C  0.43235747  0.12520850  0.35180061    -0.22200
C82         C  0.43685552  0.15722034  0.38425286     0.20600
F83         F  0.49624607  0.18918067  0.39590802    -0.12200
F84         F  0.40072686  0.18101493  0.43903090    -0.14600
F85         F  0.34602979  0.07519385  0.30967580    -0.14600
F86         F  0.24945723  0.06782669  0.35254151    -0.12200
C87         C  0.19807259  0.46426563  0.45757870     0.25800
C88         C  0.25529846  0.43904314  0.44517767    -0.22300
C89         C  0.31767912  0.47716130  0.44883384     0.20700
C90         C  0.31774202  0.03796817  0.44734714     0.25700
C91         C  0.25495632  0.06163609  0.44246533    -0.22200
C92         C  0.19792497  0.02544071  0.45605818     0.20600
F93         F  0.14008038  0.04780731  0.46406495    -0.12200
F94         F  0.14605237  0.43239770  0.47478284    -0.14600
F95         F  0.37904685  0.07210949  0.45182577    -0.14600
F96         F  0.37852448  0.45607895  0.45117299    -0.12200
C97         C  0.07297282  0.28995387  0.19724064     0.25800
C98         C  0.01103618  0.31363810  0.19676181    -0.22300
C99         C  0.45401599  0.27086688  0.20558381     0.20700
C100        C  0.45663705  0.21021911  0.20157417     0.25700
C101        C  0.01331268  0.19039488  0.18517208    -0.22200
C102        C  0.07237454  0.23431881  0.18263494     0.20600
F103        F  0.12491582  0.23135889  0.16057093    -0.12200
F104        F  0.13419674  0.32541651  0.20064069    -0.14600
F105        F  0.40087690  0.17162992  0.21075443    -0.14600
F106        F  0.40209710  0.28487194  0.22506020    -0.12200
C107        C  0.19192610  0.41304875  0.13294787     0.25800
C108        C  0.19128181  0.36904110  0.10639682    -0.22300
C109        C  0.13080929  0.32823089  0.10401800     0.20700
C110        C  0.07335917  0.33565655  0.12397199     0.25700
C111        C  0.07244034  0.38082901  0.14968983    -0.22200
C112        C  0.13353560  0.42159836  0.15234479     0.20600
F113        F  0.13992069  0.46899655  0.17396057    -0.12200
F114        F  0.25279366  0.44337782  0.14332930    -0.14600
F115        F  0.01649977  0.29661059  0.11887145    -0.14600
F116        F  0.12725677  0.27750291  0.08555429    -0.12200
C117        C  0.44395305  0.38639610  0.11376114     0.25800
C118        C  0.44110983  0.37266776  0.15106230    -0.22300
C119        C  0.37388328  0.35744149  0.16418952     0.20700
C120        C  0.31671437  0.34595965  0.14125084     0.25700
C121        C  0.32036169  0.36240197  0.10462084    -0.22200
C122        C  0.38705622  0.37280817  0.09083456     0.20600
F123        F  0.39759746  0.38103061  0.05515783    -0.12200
F124        F  0.50004099  0.41797433  0.09889651    -0.14600
F125        F  0.25745857  0.32059624  0.15619056    -0.14600
F126        F  0.35973676  0.36248288  0.19916047    -0.12200
C127        C  0.05842330  0.09779101  0.10902931     0.25800
C128        C  0.06605881  0.11513318  0.14537497    -0.22300
C129        C  0.13396743  0.12526844  0.15935452     0.20700
C130        C  0.18925437  0.13383968  0.13666858     0.25700
C131        C  0.18245188  0.11861152  0.09971666    -0.22200
C132        C  0.11399669  0.10604431  0.08631383     0.20600
F133        F  0.09773086  0.11017835  0.05107376    -0.12200
F134        F  0.99714760  0.07437509  0.09412162    -0.14600
F135        F  0.24742417  0.16457834  0.15113169    -0.14600
F136        F  0.14765687  0.14054074  0.19422672    -0.12200
C137        C  0.37132425  0.17057410  0.09921624     0.25800
C138        C  0.31355893  0.12624897  0.10098166    -0.22300
C139        C  0.31890064  0.08159994  0.12658316     0.20700
C140        C  0.37873563  0.07721857  0.14678891     0.25700
C141        C  0.43657363  0.12133663  0.14481682    -0.22200
C142        C  0.43209008  0.16490330  0.11839359     0.20600
F143        F  0.49026074  0.19772605  0.10773067    -0.12200
F144        F  0.37131726  0.22037958  0.07997528    -0.14600
F145        F  0.38039131  0.02603286  0.16445329    -0.14600
F146        F  0.26301398  0.04224674  0.13250792    -0.12200
C147        C  0.19118330  0.01244632  0.04862356     0.25800
C148        C  0.24784692  0.05739559  0.05514696    -0.22300
C149        C  0.31150906  0.03757012  0.05132874     0.20700
C150        C  0.31861766  0.48074480  0.06257170     0.25700
C151        C  0.26057022  0.43502044  0.06332810    -0.22200
C152        C  0.19898145  0.45281861  0.05009713     0.20600
F153        F  0.14278149  0.41259821  0.04307957    -0.12200
F154        F  0.13048175  0.02335908  0.03529918    -0.14600
F155        F  0.38146553  0.47717902  0.07627960    -0.14600
F156        F  0.36934152  0.07651247  0.04627605    -0.12200
O157        O  0.19605638  0.19074790  0.54002097    -0.72200
O158        O  0.18632080  0.29358958  0.96019618    -0.72300
O159        O  0.18418944  0.17447537  0.96762545    -0.72300
O160        O  0.19639831  0.30947636  0.53266301    -0.72400
O161        O  0.30590113  0.30394322  0.54210039    -0.72300
O162        O  0.29383885  0.20283876  0.95967099    -0.72300
O163        O  0.29720043  0.32168189  0.96980151    -0.72200
O164        O  0.30513305  0.18659513  0.53031506    -0.72300
Ni165      Ni  0.18949357  0.24244483  0.49995547     1.25400
Ni166      Ni  0.30272907  0.25386944  0.00001905     1.25400
C167        C  0.25045939  0.16788516  0.54703136     0.91200
C168        C  0.24121483  0.32821551  0.95297392     0.89900
C169        C  0.23983781  0.16775566  0.95166454     0.89900
C170        C  0.25235073  0.32596309  0.55059123     0.90100
C171        C  0.24956509  0.11791335  0.57454091    -0.00300
C172        C  0.25871642  0.37286594  0.58126730    -0.00300
C173        C  0.00666827  0.12506877  0.66776391    -0.00300
C174        C  0.01128380  0.37350011  0.67575379    -0.00300
O175        O  0.44081692  0.43329940  0.78047175    -0.72200
O176        O  0.44523082  0.06070724  0.71314960    -0.72300
O177        O  0.45206400  0.44332894  0.70850325    -0.72300
O178        O  0.43856115  0.05336422  0.78451871    -0.72400
O179        O  0.05026603  0.07977086  0.78366414    -0.72300
O180        O  0.06138848  0.44462455  0.72289116    -0.72300
O181        O  0.05714467  0.06247963  0.71170471    -0.72200
O182        O  0.05018295  0.46217743  0.79445374    -0.72300
Ni183      Ni  0.43975845  0.99692883  0.74662494     1.25400
Ni184      Ni  0.05929057  0.01306811  0.75332007     1.25400
C185        C  0.49429130  0.42744940  0.79964869     0.90000
C186        C  0.00246845  0.08031754  0.69914046     0.89900
C187        C  0.50886286  0.42336134  0.70371835     0.89900
C188        C  0.49168973  0.08751597  0.79576478     0.90100
C189        C  0.24113823  0.11987631  0.92223250    -0.00300
C190        C  0.24175718  0.37660827  0.92413147    -0.00300
C191        C  0.48779455  0.13494151  0.82535803    -0.00300
C192        C  0.48997856  0.37839418  0.82802864    -0.00300
C193        C  0.41910461  0.21962100  0.80389716     0.25800
C194        C  0.48179683  0.19546097  0.80650758    -0.22300
C195        C  0.03790350  0.23223711  0.79213730     0.20700
C196        C  0.03772507  0.29360322  0.79161912     0.25700
C197        C  0.48247413  0.31818018  0.80673579    -0.22200
C198        C  0.41963774  0.28041647  0.80421715     0.20600
F199        F  0.35894951  0.30186471  0.80310415    -0.12200
F200        F  0.35747942  0.18584603  0.79946179    -0.14600
F201        F  0.08613541  0.32636185  0.77231355    -0.14600
F202        F  0.09463991  0.21010505  0.78194018    -0.12200
C203        C  0.05380264  0.37994661  0.89121087     0.25800
C204        C  0.05681221  0.38359536  0.85325094    -0.22300
C205        C  0.12363869  0.38430537  0.83961720     0.20700
C206        C  0.17837752  0.37062178  0.86083025     0.25700
C207        C  0.17511898  0.36746480  0.89877264    -0.22200
C208        C  0.10789564  0.36436390  0.91210563     0.20600
F209        F  0.09080281  0.34342882  0.94510176    -0.12200
F210        F  0.00094553  0.39520353  0.90989679    -0.14600
F211        F  0.23260343  0.35711034  0.84253371    -0.14600
F212        F  0.14049134  0.40324363  0.80626130    -0.12200
C213        C  0.38730721  0.42789037  0.85520244     0.25800
C214        C  0.42452114  0.37971090  0.85232792    -0.22300
C215        C  0.40159171  0.33108497  0.87457977     0.20700
C216        C  0.34381598  0.32884250  0.89598946     0.25700
C217        C  0.30776124  0.37735932  0.89987416    -0.22200
C218        C  0.33040096  0.42615485  0.87758946     0.20600
F219        F  0.29367369  0.47133507  0.87532484    -0.12200
F220        F  0.40556288  0.47848286  0.83738249    -0.14600
F221        F  0.32214741  0.27655554  0.91094857    -0.14600
F222        F  0.43757639  0.28536326  0.87687981    -0.12200
C223        C  0.16092025  0.17696951  0.88328364     0.25800
C224        C  0.17401452  0.12238048  0.89751352    -0.22300
C225        C  0.12617444  0.07302763  0.88608834     0.20700
C226        C  0.06771848  0.07898102  0.86477661     0.25700
C227        C  0.05503230  0.13335908  0.85017493    -0.22200
C228        C  0.10310865  0.18276663  0.86126790     0.20600
F229        F  0.09076327  0.23835131  0.85580676    -0.12200
F230        F  0.20382326  0.22670810  0.89136115    -0.14600
F231        F  0.02360066  0.02951655  0.85765572    -0.14600
F232        F  0.13894880  0.01734683  0.89074115    -0.12200
C233        C  0.37303967  0.15640937  0.90609349     0.25800
C234        C  0.30528327  0.12894185  0.89656942    -0.22300
C235        C  0.30095312  0.09733130  0.86387778     0.20700
C236        C  0.35706534  0.09547809  0.84188628     0.25700
C237        C  0.42436232  0.12384214  0.85123912    -0.22200
C238        C  0.42856557  0.15559557  0.88380917     0.20600
F239        F  0.48764342  0.18787994  0.89555840    -0.12200
F240        F  0.39263505  0.17768079  0.93894575    -0.14600
F241        F  0.33903701  0.07247668  0.80930825    -0.14600
F242        F  0.24139183  0.06631231  0.85178333    -0.12200
C243        C  0.18763554  0.46254590  0.95637419     0.25800
C244        C  0.24544554  0.43716747  0.94478995    -0.22300
C245        C  0.30772715  0.47522653  0.94900253     0.20700
C246        C  0.30801053  0.03605651  0.94744908     0.25700
C247        C  0.24551316  0.05986914  0.94193485    -0.22200
C248        C  0.18784396  0.02374513  0.95489795     0.20600
F249        F  0.12975709  0.04622208  0.96230531    -0.12200
F250        F  0.13429627  0.43086734  0.97268239    -0.14600
F251        F  0.36922397  0.07010167  0.95239834    -0.14600
F252        F  0.36841652  0.45401139  0.95192804    -0.12200
C253        C  0.07763864  0.28855689  0.69538017     0.25800
C254        C  0.01582768  0.31253055  0.69610982    -0.22300
C255        C  0.45961313  0.27001116  0.70609775     0.20700
C256        C  0.46118649  0.20931171  0.70143002     0.25700
C257        C  0.01677436  0.18919029  0.68418188    -0.22200
C258        C  0.07610844  0.23264139  0.68101283     0.20600
F259        F  0.12873741  0.22829562  0.65921456    -0.12200
F260        F  0.13926044  0.32347027  0.69851891    -0.14600
F261        F  0.40572565  0.17097241  0.71127913    -0.14600
F262        F  0.41119579  0.28429279  0.72789598    -0.12200
C263        C  0.19595575  0.41240794  0.63455315     0.25800
C264        C  0.19521455  0.36960417  0.60710823    -0.22300
C265        C  0.13441618  0.32947361  0.60390784     0.20700
C266        C  0.07644419  0.33722272  0.62322560     0.25700
C267        C  0.07541797  0.38138555  0.64963576    -0.22200
C268        C  0.13694139  0.42125794  0.65336542     0.20600
F269        F  0.14320376  0.46763715  0.67578216    -0.12200
F270        F  0.25683255  0.44032599  0.64693932    -0.14600
F271        F  0.01921571  0.29937103  0.61671307    -0.14600
F272        F  0.13073989  0.27922378  0.58494447    -0.12200
C273        C  0.44706341  0.38853642  0.61413662     0.25800
C274        C  0.44428272  0.37153697  0.65095331    -0.22300
C275        C  0.37717852  0.35367838  0.66364974     0.20700
C276        C  0.32023744  0.34376997  0.64049744     0.25700
C277        C  0.32392975  0.36374712  0.60453305    -0.22200
C278        C  0.39059104  0.37548484  0.59096535     0.20600
F279        F  0.40162434  0.38306012  0.55528697    -0.12200
F280        F  0.50298451  0.42142347  0.59996416    -0.14600
F281        F  0.26115513  0.31612707  0.65455034    -0.14600
F282        F  0.36256580  0.35533498  0.69869366    -0.12200
C283        C  0.06099564  0.09968346  0.60738568     0.25800
C284        C  0.06818182  0.11364294  0.64429280    -0.22300
C285        C  0.13587931  0.12143605  0.65874091     0.20700
C286        C  0.19208072  0.12860090  0.63660841     0.25700
C287        C  0.18543371  0.11769460  0.59907276    -0.22200
C288        C  0.11718806  0.10817772  0.58515270     0.20600
F289        F  0.10207453  0.11317572  0.54978838    -0.12200
F290        F  0.99972002  0.07934900  0.59136763    -0.14600
F291        F  0.25118977  0.15496720  0.65251383    -0.14600
F292        F  0.14935462  0.13622779  0.69368279    -0.12200
C293        C  0.37201495  0.17119743  0.59985230     0.25800
C294        C  0.31644548  0.12474753  0.59975269    -0.22300
C295        C  0.32374175  0.07791353  0.62340427     0.20700
C296        C  0.38368460  0.07399205  0.64364281     0.25700
C297        C  0.43893725  0.12064837  0.64380978    -0.22200
C298        C  0.43299621  0.16588026  0.61880794     0.20600
F299        F  0.49038271  0.20045289  0.60897196    -0.12200
F300        F  0.36889935  0.22305076  0.58326410    -0.14600
F301        F  0.38923595  0.02121507  0.65863646    -0.14600
F302        F  0.26991345  0.03552363  0.62676383    -0.12200
C303        C  0.19165071  0.01260179  0.54889035     0.25800
C304        C  0.24874718  0.05781860  0.55334255    -0.22300
C305        C  0.31199404  0.03790096  0.54824723     0.20700
C306        C  0.32015464  0.48153183  0.56025198     0.25700
C307        C  0.26226096  0.43596823  0.56327694    -0.22200
C308        C  0.19957036  0.45319135  0.55118849     0.20600
F309        F  0.14282510  0.41285115  0.54569184    -0.12200
F310        F  0.12967022  0.02279019  0.53690464    -0.14600
F311        F  0.38393449  0.47876180  0.57289389    -0.14600
F312        F  0.36926116  0.07708909  0.54233528    -0.12200
O313        O  0.19159688  0.68932389  0.04045120    -0.72200
O314        O  0.19387502  0.79531867  0.45981370    -0.72300
O315        O  0.19140593  0.67638132  0.46726663    -0.72300
O316        O  0.19184056  0.80796049  0.03302190    -0.72400
O317        O  0.30165051  0.80266199  0.04145075    -0.72300
O318        O  0.30155159  0.70423531  0.46052758    -0.72300
O319        O  0.30449411  0.82324424  0.47041891    -0.72200
O320        O  0.30027333  0.68521617  0.02964767    -0.72300
Ni321      Ni  0.18352694  0.74076944  0.00038527     1.25400
Ni322      Ni  0.30880180  0.75534632  0.50077226     1.25400
C323        C  0.24650342  0.66694873  0.04717506     0.91200
C324        C  0.24904409  0.82993681  0.45312588     0.89900
C325        C  0.24763241  0.66942504  0.45197265     0.89900
C326        C  0.24837085  0.82468057  0.05040761     0.90100
C327        C  0.24690172  0.61817692  0.07539925    -0.00300
C328        C  0.25541012  0.87166877  0.08106594    -0.00300
C329        C  0.00443192  0.62618860  0.16886655    -0.00300
C330        C  0.00821633  0.87424216  0.17577754    -0.00300
O331        O  0.44665880  0.93308485  0.28106920    -0.72200
O332        O  0.44644493  0.56298599  0.21587920    -0.72300
O333        O  0.45237766  0.94563809  0.20903042    -0.72300
O334        O  0.44531775  0.55273548  0.28696201    -0.72400
O335        O  0.05631741  0.58057311  0.28321253    -0.72300
O336        O  0.06170493  0.94461728  0.22231703    -0.72300
O337        O  0.05742441  0.56240115  0.21108354    -0.72200
O338        O  0.05626131  0.96274628  0.29401490    -0.72300
Ni339      Ni  0.44319475  0.49783661  0.24828548     1.25400
Ni340      Ni  0.06268303  0.51341345  0.25271356     1.25400
C341        C  0.50095368  0.92755787  0.29966294     0.90000
C342        C  0.00222248  0.58147021  0.20022931     0.89900
C343        C  0.50812368  0.92452988  0.20359998     0.89900
C344        C  0.49868963  0.58777616  0.29671470     0.90100
C345        C  0.24965917  0.62148598  0.42272002    -0.00300
C346        C  0.25044461  0.87850904  0.42438408    -0.00300
C347        C  0.49582849  0.63562534  0.32597263    -0.00300
C348        C  0.49778536  0.87864753  0.32810098    -0.00300
C349        C  0.42728048  0.72005580  0.30361472     0.25800
C350        C  0.48989355  0.69578229  0.30664974    -0.22300
C351        C  0.04616325  0.73220939  0.29231638     0.20700
C352        C  0.04649241  0.79362568  0.29207238     0.25700
C353        C  0.49087732  0.81844878  0.30678814    -0.22200
C354        C  0.42798661  0.78087892  0.30371265     0.20600
F355        F  0.36737623  0.80244747  0.30247522    -0.12200
F356        F  0.36559521  0.68645282  0.29907000    -0.14600
F357        F  0.09641619  0.82632581  0.27376172    -0.14600
F358        F  0.10276132  0.70977622  0.28220785    -0.12200
C359        C  0.06156144  0.88076842  0.39141786     0.25800
C360        C  0.06454420  0.88452216  0.35342414    -0.22300
C361        C  0.13153010  0.88647177  0.33985133     0.20700
C362        C  0.18665787  0.87347382  0.36103759     0.25700
C363        C  0.18366408  0.87028407  0.39903122    -0.22200
C364        C  0.11646162  0.86711186  0.41247128     0.20600
F365        F  0.09986813  0.84725245  0.44572859    -0.12200
F366        F  0.00768038  0.89392286  0.41011284    -0.14600
F367        F  0.24098407  0.86063532  0.34257255    -0.14600
F368        F  0.14797959  0.90575298  0.30650375    -0.12200
C369        C  0.39611810  0.92851729  0.35567660     0.25800
C370        C  0.43226384  0.87978929  0.35233486    -0.22300
C371        C  0.40871372  0.83105650  0.37435261     0.20700
C372        C  0.35149720  0.82949763  0.39614711     0.25700
C373        C  0.31613702  0.87843974  0.40010771    -0.22200
C374        C  0.33928461  0.92714846  0.37792513     0.20600
F375        F  0.30320384  0.97276274  0.37564118    -0.12200
F376        F  0.41545722  0.97946470  0.33852804    -0.14600
F377        F  0.33000312  0.77765665  0.41165913    -0.14600
F378        F  0.44413344  0.78500226  0.37646369    -0.12200
C379        C  0.16992091  0.67768809  0.38307806     0.25800
C380        C  0.18245081  0.62344814  0.39800496    -0.22300
C381        C  0.13425118  0.57402618  0.38712318     0.20700
C382        C  0.07591865  0.57973244  0.36560627     0.25700
C383        C  0.06328420  0.63394251  0.35066822    -0.22200
C384        C  0.11179180  0.68334901  0.36131346     0.20600
F385        F  0.09986776  0.73896274  0.35558616    -0.12200
F386        F  0.21397765  0.72721820  0.39007843    -0.14600
F387        F  0.03192898  0.53016917  0.35868504    -0.14600
F388        F  0.14672825  0.51839778  0.39235575    -0.12200
C389        C  0.38127685  0.65881426  0.40638303     0.25800
C390        C  0.31355060  0.63102224  0.39701148    -0.22300
C391        C  0.30904626  0.59910874  0.36446999     0.20700
C392        C  0.36485567  0.59729693  0.34240260     0.25700
C393        C  0.43238631  0.62520609  0.35179538    -0.22200
C394        C  0.43688610  0.65721871  0.38424725     0.20600
F395        F  0.49627690  0.68918546  0.39589773    -0.12200
F396        F  0.40075619  0.68101207  0.43902695    -0.14600
F397        F  0.34605172  0.57518715  0.30967339    -0.14600
F398        F  0.24949022  0.56780606  0.35254514    -0.12200
C399        C  0.19804277  0.96426373  0.45756758     0.25800
C400        C  0.25527382  0.93904356  0.44516948    -0.22300
C401        C  0.31765278  0.97716353  0.44882892     0.20700
C402        C  0.31777003  0.53796578  0.44734791     0.25700
C403        C  0.25498418  0.56163350  0.44246439    -0.22200
C404        C  0.19795405  0.52544224  0.45606226     0.20600
F405        F  0.14011210  0.54781178  0.46407010    -0.12200
F406        F  0.14600663  0.93239182  0.47475737    -0.14600
F407        F  0.37907524  0.57210702  0.45182542    -0.14600
F408        F  0.37849933  0.95608327  0.45116700    -0.12200
C409        C  0.07298967  0.78995804  0.19723170     0.25800
C410        C  0.01105639  0.81364737  0.19675901    -0.22300
C411        C  0.45403615  0.77087876  0.20558675     0.20700
C412        C  0.45664890  0.71022871  0.20157757     0.25700
C413        C  0.01331764  0.69040011  0.18517358    -0.22200
C414        C  0.07238005  0.73432131  0.18262753     0.20600
F415        F  0.12490811  0.73135664  0.16055530    -0.12200
F416        F  0.13421852  0.82541469  0.20062689    -0.14600
F417        F  0.40088714  0.67164391  0.21076087    -0.14600
F418        F  0.40212966  0.78489029  0.22506980    -0.12200
C419        C  0.19194650  0.91306366  0.13295255     0.25800
C420        C  0.19130029  0.86905830  0.10639973    -0.22300
C421        C  0.13082684  0.82825076  0.10401867     0.20700
C422        C  0.07337557  0.83567854  0.12396976     0.25700
C423        C  0.07245730  0.88084702  0.14969031    -0.22200
C424        C  0.13355528  0.92161295  0.15234941     0.20600
F425        F  0.13994302  0.96900464  0.17397063    -0.12200
F426        F  0.25281581  0.94338783  0.14333679    -0.14600
F427        F  0.01651620  0.79663447  0.11886516    -0.14600
F428        F  0.12727494  0.77752035  0.08555763    -0.12200
C429        C  0.44396923  0.88641495  0.11376046     0.25800
C430        C  0.44112722  0.87267801  0.15106082    -0.22300
C431        C  0.37390147  0.85744480  0.16418780     0.20700
C432        C  0.31673287  0.84596461  0.14124951     0.25700
C433        C  0.32037894  0.86241505  0.10462152    -0.22200
C434        C  0.38707152  0.87283011  0.09083353     0.20600
F435        F  0.39760354  0.88107939  0.05515785    -0.12200
F436        F  0.50005501  0.91800118  0.09889845    -0.14600
F437        F  0.25747695  0.82059905  0.15618806    -0.14600
F438        F  0.35975351  0.86248208  0.19915863    -0.12200
C439        C  0.05842122  0.59781509  0.10902823     0.25800
C440        C  0.06605482  0.61514036  0.14537654    -0.22300
C441        C  0.13396193  0.62526671  0.15935964     0.20700
C442        C  0.18925362  0.63383089  0.13667746     0.25700
C443        C  0.18245178  0.61861861  0.09972328    -0.22200
C444        C  0.11399762  0.60607194  0.08631609     0.20600
F445        F  0.09773901  0.61021412  0.05107498    -0.12200
F446        F  0.99714576  0.57441260  0.09411455    -0.14600
F447        F  0.24742815  0.66455109  0.15114749    -0.14600
F448        F  0.14764685  0.64054039  0.19423209    -0.12200
C449        C  0.37131570  0.67057658  0.09922476     0.25800
C450        C  0.31355704  0.62624511  0.10098703    -0.22300
C451        C  0.31890445  0.58159199  0.12658493     0.20700
C452        C  0.37874185  0.57721181  0.14678858     0.25700
C453        C  0.43657169  0.62133775  0.14482042    -0.22200
C454        C  0.43208173  0.66490996  0.11840193     0.20600
F455        F  0.49024749  0.69774532  0.10774448    -0.12200
F456        F  0.37129881  0.72038755  0.07999025    -0.14600
F457        F  0.38040979  0.52602196  0.16444674    -0.14600
F458        F  0.26301937  0.54223854  0.13251108    -0.12200
C459        C  0.19116040  0.51243943  0.04864363     0.25800
C460        C  0.24782962  0.55738976  0.05515770    -0.22300
C461        C  0.31148939  0.53756364  0.05133008     0.20700
C462        C  0.31863130  0.98076021  0.06258825     0.25700
C463        C  0.26058719  0.93503285  0.06333239    -0.22200
C464        C  0.19900383  0.95282535  0.05008801     0.20600
F465        F  0.14280923  0.91260212  0.04306574    -0.12200
F466        F  0.13043502  0.52334871  0.03535073    -0.14600
F467        F  0.38145256  0.97721419  0.07633973    -0.14600
F468        F  0.36931973  0.57650700  0.04627379    -0.12200
O469        O  0.19608129  0.69074867  0.54001349    -0.72200
O470        O  0.18631991  0.79359152  0.96020453    -0.72300
O471        O  0.18418642  0.67447567  0.96764030    -0.72300
O472        O  0.19641771  0.80947655  0.53265447    -0.72400
O473        O  0.30592414  0.80395510  0.54209034    -0.72300
O474        O  0.29383293  0.70283910  0.95967741    -0.72300
O475        O  0.29720090  0.82168420  0.96980623    -0.72200
O476        O  0.30515911  0.68660046  0.53030955    -0.72300
Ni477      Ni  0.18951344  0.74244236  0.49994836     1.25400
Ni478      Ni  0.30273395  0.75387245  0.00002454     1.25400
C479        C  0.25048253  0.66788512  0.54702364     0.91200
C480        C  0.24121261  0.82821778  0.95298071     0.89900
C481        C  0.23983110  0.66775271  0.95167693     0.89900
C482        C  0.25236992  0.82597035  0.55058148     0.90100
C483        C  0.24958020  0.61790806  0.57453190    -0.00300
C484        C  0.25873108  0.87287255  0.58125901    -0.00300
C485        C  0.00667862  0.62507124  0.66775691    -0.00300
C486        C  0.01129889  0.87350579  0.67574397    -0.00300
O487        O  0.44081898  0.93328984  0.78047487    -0.72200
O488        O  0.44523065  0.56071570  0.71314419    -0.72300
O489        O  0.45206570  0.94331563  0.70850290    -0.72300
O490        O  0.43855122  0.55337389  0.78451614    -0.72400
O491        O  0.05025979  0.57977631  0.78366637    -0.72300
O492        O  0.06139179  0.94461892  0.72288967    -0.72300
O493        O  0.05714696  0.56248751  0.71170396    -0.72200
O494        O  0.05018597  0.96216824  0.79445612    -0.72300
Ni495      Ni  0.43975486  0.49694007  0.74662247     1.25400
Ni496      Ni  0.05928791  0.51307631  0.75331976     1.25400
C497        C  0.49429150  0.92744214  0.79965347     0.90000
C498        C  0.00247292  0.58032283  0.69913550     0.89900
C499        C  0.50886935  0.92335538  0.70371412     0.89900
C500        C  0.49167973  0.58751868  0.79576841     0.90100
C501        C  0.24112536  0.61986815  0.92224741    -0.00300
C502        C  0.24175024  0.87660849  0.92413721    -0.00300
C503        C  0.48778173  0.63493254  0.82536850    -0.00300
C504        C  0.48997180  0.87839035  0.82803707    -0.00300
C505        C  0.41908604  0.71961547  0.80392037     0.25800
C506        C  0.48177906  0.69545542  0.80652444    -0.22300
C507        C  0.03788665  0.73222909  0.79214849     0.20700
C508        C  0.03770740  0.79359490  0.79162588     0.25700
C509        C  0.48245820  0.81817384  0.80674693    -0.22200
C510        C  0.41962040  0.78041068  0.80423492     0.20600
F511        F  0.35893230  0.80185939  0.80312383    -0.12200
F512        F  0.35745730  0.68584101  0.79949753    -0.14600
F513        F  0.08610401  0.82634988  0.77230952    -0.14600
F514        F  0.09461913  0.71009527  0.78194729    -0.12200
C515        C  0.05379659  0.87994813  0.89121985     0.25800
C516        C  0.05680517  0.88358830  0.85325916    -0.22300
C517        C  0.12362855  0.88428583  0.83962485     0.20700
C518        C  0.17836501  0.87060123  0.86083875     0.25700
C519        C  0.17510973  0.86745944  0.89878123    -0.22200
C520        C  0.10788884  0.86436559  0.91211567     0.20600
F521        F  0.09080041  0.84343997  0.94511467    -0.12200
F522        F  0.00094212  0.89521307  0.90990466    -0.14600
F523        F  0.23258549  0.85707384  0.84254406    -0.14600
F524        F  0.14048015  0.90321243  0.80626692    -0.12200
C525        C  0.38729552  0.92788781  0.85520483     0.25800
C526        C  0.42451597  0.87971158  0.85233653    -0.22300
C527        C  0.40158868  0.83108797  0.87459126     0.20700
C528        C  0.34380706  0.82884296  0.89599604     0.25700
C529        C  0.30774988  0.87735836  0.89987746    -0.22200
C530        C  0.33038455  0.92615094  0.87758891     0.20600
F531        F  0.29365220  0.97132816  0.87532017    -0.12200
F532        F  0.40555123  0.97847873  0.83738294    -0.14600
F533        F  0.32213095  0.77655331  0.91095056    -0.14600
F534        F  0.43757624  0.78536801  0.87689585    -0.12200
C535        C  0.16089972  0.67696109  0.88330161     0.25800
C536        C  0.17400054  0.62237145  0.89752845    -0.22300
C537        C  0.12616775  0.57301686  0.88609832     0.20700
C538        C  0.06771807  0.57896761  0.86478050     0.25700
C539        C  0.05502401  0.63334699  0.85018377    -0.22200
C540        C  0.10309209  0.68275601  0.86128216     0.20600
F541        F  0.09074047  0.73833926  0.85582185    -0.12200
F542        F  0.20378961  0.72670326  0.89138710    -0.14600
F543        F  0.02361585  0.52949905  0.85764843    -0.14600
F544        F  0.13894572  0.51733722  0.89075181    -0.12200
C545        C  0.37303042  0.65639143  0.90610759     0.25800
C546        C  0.30527198  0.62892769  0.89658376    -0.22300
C547        C  0.30094203  0.59731460  0.86389288     0.20700
C548        C  0.35705542  0.59545572  0.84190211     0.25700
C549        C  0.42435199  0.62382450  0.85125213    -0.22200
C550        C  0.42855530  0.65557822  0.88382220     0.20600
F551        F  0.48763197  0.68786634  0.89556949    -0.12200
F552        F  0.39262714  0.67766775  0.93895862    -0.14600
F553        F  0.33902766  0.57244416  0.80932676    -0.14600
F554        F  0.24138005  0.56629775  0.85179824    -0.12200
C555        C  0.18763698  0.96256182  0.95636910     0.25800
C556        C  0.24544347  0.93717116  0.94479251    -0.22300
C557        C  0.30772867  0.97522640  0.94899946     0.20700
C558        C  0.30799933  0.53605659  0.94746897     0.25700
C559        C  0.24549958  0.55986296  0.94195280    -0.22200
C560        C  0.18783214  0.52372897  0.95491035     0.20600
F561        F  0.12974208  0.54619710  0.96232319    -0.12200
F562        F  0.13428828  0.93089600  0.97267670    -0.14600
F563        F  0.36920160  0.57010945  0.95244064    -0.14600
F564        F  0.36841408  0.95400521  0.95192847    -0.12200
C565        C  0.07766374  0.78855920  0.69535786     0.25800
C566        C  0.01585411  0.81253402  0.69609472    -0.22300
C567        C  0.45965157  0.77001804  0.70609833     0.20700
C568        C  0.46121497  0.70931735  0.70142797     0.25700
C569        C  0.01679217  0.68919304  0.68417343    -0.22200
C570        C  0.07612618  0.73264088  0.68099498     0.20600
F571        F  0.12874988  0.72828508  0.65919482    -0.12200
F572        F  0.13928849  0.82346825  0.69849359    -0.14600
F573        F  0.40575745  0.67098188  0.71128554    -0.14600
F574        F  0.41126952  0.78430771  0.72791690    -0.12200
C575        C  0.19597765  0.91241102  0.63454645     0.25800
C576        C  0.19522951  0.86961228  0.60709844    -0.22300
C577        C  0.13442528  0.82949179  0.60389268     0.20700
C578        C  0.07645358  0.83724680  0.62320755     0.25700
C579        C  0.07543316  0.88140008  0.64962499    -0.22200
C580        C  0.13696674  0.92125935  0.65336347     0.20600
F581        F  0.14324538  0.96761734  0.67579699    -0.12200
F582        F  0.25685931  0.94032903  0.64692677    -0.14600
F583        F  0.01922035  0.79940776  0.61668341    -0.14600
F584        F  0.13073855  0.77924498  0.58492563    -0.12200
C585        C  0.44707704  0.88855069  0.61412723     0.25800
C586        C  0.44429890  0.87153546  0.65094222    -0.22300
C587        C  0.37719618  0.85365894  0.66363579     0.20700
C588        C  0.32025414  0.84375966  0.64048326     0.25700
C589        C  0.32394473  0.86375195  0.60452255    -0.22200
C590        C  0.39060407  0.87550583  0.59095424     0.20600
F591        F  0.40162427  0.88313243  0.55527771    -0.12200
F592        F  0.50299594  0.92144788  0.59995917    -0.14600
F593        F  0.26117041  0.81611302  0.65453256    -0.14600
F594        F  0.36258442  0.85528689  0.69868026    -0.12200
C595        C  0.06100598  0.59970796  0.60737233     0.25800
C596        C  0.06819036  0.61364421  0.64428317    -0.22300
C597        C  0.13588763  0.62142243  0.65873258     0.20700
C598        C  0.19209382  0.62857527  0.63660265     0.25700
C599        C  0.18544869  0.61769057  0.59906468    -0.22200
C600        C  0.11720338  0.60819421  0.58514223     0.20600
F601        F  0.10209603  0.61319189  0.54977694    -0.12200
F602        F  0.99972868  0.57940339  0.59134661    -0.14600
F603        F  0.25120901  0.65491267  0.65251524    -0.14600
F604        F  0.14936386  0.63621371  0.69367427    -0.12200
C605        C  0.37201740  0.67119763  0.59985095     0.25800
C606        C  0.31646192  0.62473614  0.59974128    -0.22300
C607        C  0.32376917  0.57789424  0.62338469     0.20700
C608        C  0.38370881  0.57398029  0.64362776     0.25700
C609        C  0.43894691  0.62064894  0.64380455    -0.22200
C610        C  0.43299729  0.66588731  0.61880895     0.20600
F611        F  0.49037761  0.70047455  0.60898094    -0.12200
F612        F  0.36888472  0.72305745  0.58327365    -0.14600
F613        F  0.38927345  0.52120386  0.65861904    -0.14600
F614        F  0.26995228  0.53549209  0.62673334    -0.12200
C615        C  0.19164248  0.51259977  0.54889552     0.25800
C616        C  0.24874634  0.55781206  0.55333340    -0.22300
C617        C  0.31198644  0.53788677  0.54823096     0.20700
C618        C  0.32016192  0.98155366  0.56027957     0.25700
C619        C  0.26227633  0.93597706  0.56327412    -0.22200
C620        C  0.19959124  0.95319368  0.55117106     0.20600
F621        F  0.14285742  0.91284704  0.54565974    -0.12200
F622        F  0.12966393  0.52279020  0.53690759    -0.14600
F623        F  0.38391014  0.97881163  0.57297989    -0.14600
F624        F  0.36925320  0.57707042  0.54230947    -0.12200
O625        O  0.69158582  0.18934525  0.04044077    -0.72200
O626        O  0.69387189  0.29533172  0.45981164    -0.72300
O627        O  0.69138149  0.17639315  0.46727345    -0.72300
O628        O  0.69181477  0.30798456  0.03302724    -0.72400
O629        O  0.80162893  0.30269830  0.04145375    -0.72300
O630        O  0.80152632  0.20424027  0.46053020    -0.72300
O631        O  0.80449257  0.32324880  0.47041687    -0.72200
O632        O  0.80026998  0.18526022  0.02964168    -0.72300
Ni633      Ni  0.68351727  0.24080563  0.00038148     1.25400
Ni634      Ni  0.80878926  0.25535452  0.50077352     1.25400
C635        C  0.74650003  0.16698059  0.04716525     0.91200
C636        C  0.74904648  0.32994172  0.45312087     0.89900
C637        C  0.74760432  0.16943235  0.45197726     0.89900
C638        C  0.74834458  0.32470855  0.05041263     0.90100
C639        C  0.74690641  0.11820065  0.07538189    -0.00300
C640        C  0.75538128  0.37169280  0.08107307    -0.00300
C641        C  0.50444996  0.12621222  0.16886270    -0.00300
C642        C  0.50819463  0.37424807  0.17579109    -0.00300
O643        O  0.94668380  0.43304637  0.28106925    -0.72200
O644        O  0.94643393  0.06295415  0.21587976    -0.72300
O645        O  0.95237786  0.44560543  0.20902820    -0.72300
O646        O  0.94529683  0.05270044  0.28696405    -0.72400
O647        O  0.55629544  0.08061596  0.28321572    -0.72300
O648        O  0.56168960  0.44462858  0.22232360    -0.72300
O649        O  0.55743567  0.06243435  0.21108782    -0.72200
O650        O  0.55626219  0.46278783  0.29401779    -0.72300
Ni651      Ni  0.94319086  0.99780412  0.24828439     1.25400
Ni652      Ni  0.56267156  0.01345209  0.25272203     1.25400
C653        C  0.00098285  0.42751866  0.29965952     0.90000
C654        C  0.50223608  0.08149961  0.20022737     0.89900
C655        C  0.00812194  0.42449869  0.20359024     0.89900
C656        C  0.99866757  0.08773717  0.29672481     0.90100
C657        C  0.74962175  0.12149527  0.42272167    -0.00300
C658        C  0.75045897  0.37850944  0.42437556    -0.00300
C659        C  0.99580204  0.13558668  0.32598469    -0.00300
C660        C  0.99781361  0.37861431  0.32810225    -0.00300
C661        C  0.92727682  0.22003011  0.30362402     0.25800
C662        C  0.98988028  0.19574266  0.30666015    -0.22300
C663        C  0.54614118  0.23224729  0.29231881     0.20700
C664        C  0.54648557  0.29366473  0.29207904     0.25700
C665        C  0.99090147  0.31841269  0.30679223    -0.22200
C666        C  0.92800258  0.28085537  0.30371224     0.20600
F667        F  0.86740192  0.30243918  0.30246765    -0.12200
F668        F  0.86558009  0.18643885  0.29909464    -0.14600
F669        F  0.59642718  0.32636015  0.27377857    -0.14600
F670        F  0.60273317  0.20980592  0.28220958    -0.12200
C671        C  0.56158872  0.38082730  0.39141571     0.25800
C672        C  0.56456316  0.38457220  0.35342281    -0.22300
C673        C  0.63154574  0.38651436  0.33984617     0.20700
C674        C  0.68667167  0.37350052  0.36102902     0.25700
C675        C  0.68367862  0.37029770  0.39902263    -0.22200
C676        C  0.61647935  0.36714282  0.41246471     0.20600
F677        F  0.59987824  0.34727658  0.44571931    -0.12200
F678        F  0.50772696  0.39401945  0.41011213    -0.14600
F679        F  0.74099407  0.36066174  0.34256087    -0.14600
F680        F  0.64799528  0.40580885  0.30650063    -0.12200
C681        C  0.89615351  0.42849496  0.35567472     0.25800
C682        C  0.93228906  0.37976143  0.35233387    -0.22300
C683        C  0.90872864  0.33103165  0.37435223     0.20700
C684        C  0.85150641  0.32948027  0.39614339     0.25700
C685        C  0.81615316  0.37842765  0.40010066    -0.22200
C686        C  0.83931574  0.42713363  0.37791937     0.20600
F687        F  0.80324624  0.47275413  0.37563300    -0.12200
F688        F  0.91551059  0.47944244  0.33853054    -0.14600
F689        F  0.83000084  0.27764279  0.41165649    -0.14600
F690        F  0.94414342  0.28497450  0.37646733    -0.12200
C691        C  0.66988569  0.17771515  0.38308621     0.25800
C692        C  0.68241322  0.12346949  0.39800744    -0.22300
C693        C  0.63420678  0.07405349  0.38712316     0.20700
C694        C  0.57587291  0.07976880  0.36560978     0.25700
C695        C  0.56324993  0.13398063  0.35067074    -0.22200
C696        C  0.61176140  0.18338307  0.36131863     0.20600
F697        F  0.59984434  0.23899891  0.35559109    -0.12200
F698        F  0.71393847  0.22724413  0.39009561    -0.14600
F699        F  0.53186785  0.03021240  0.35869331    -0.14600
F700        F  0.64667574  0.01842195  0.39235001    -0.12200
C701        C  0.88124229  0.15880530  0.40638784     0.25800
C702        C  0.81351286  0.13102715  0.39701286    -0.22300
C703        C  0.80900874  0.09910677  0.36447367     0.20700
C704        C  0.86482548  0.09727109  0.34241340     0.25700
C705        C  0.93235783  0.12517374  0.35180757    -0.22200
C706        C  0.93685563  0.15719041  0.38425854     0.20600
F707        F  0.99624911  0.18913844  0.39591898    -0.12200
F708        F  0.90072128  0.18100365  0.43903176    -0.14600
F709        F  0.84603172  0.07514230  0.30968797    -0.14600
F710        F  0.74944718  0.06781662  0.35254627    -0.12200
C711        C  0.69806781  0.46426060  0.45756610     0.25800
C712        C  0.75529519  0.43904429  0.44515995    -0.22300
C713        C  0.81767366  0.47716327  0.44881899     0.20700
C714        C  0.81773143  0.03796721  0.44734157     0.25700
C715        C  0.75494574  0.06163698  0.44246146    -0.22200
C716        C  0.69791542  0.02543735  0.45605149     0.20600
F717        F  0.64007222  0.04780202  0.46406354    -0.12200
F718        F  0.64605164  0.43238609  0.47476986    -0.14600
F719        F  0.87903424  0.07210672  0.45183208    -0.14600
F720        F  0.87852033  0.45608299  0.45115610    -0.12200
C721        C  0.57297350  0.28997962  0.19726161     0.25800
C722        C  0.51103366  0.31365968  0.19677873    -0.22300
C723        C  0.95401928  0.27084987  0.20557750     0.20700
C724        C  0.95663800  0.21019921  0.20157730     0.25700
C725        C  0.51332126  0.19042130  0.18517409    -0.22200
C726        C  0.57238826  0.23434562  0.18265471     0.20600
F727        F  0.62495975  0.23138719  0.16061083    -0.12200
F728        F  0.63419289  0.32544778  0.20066843    -0.14600
F729        F  0.90088288  0.17161333  0.21076893    -0.14600
F730        F  0.90210480  0.28486327  0.22505360    -0.12200
C731        C  0.69192173  0.41307849  0.13296377     0.25800
C732        C  0.69127605  0.36907627  0.10640928    -0.22300
C733        C  0.63081210  0.32825700  0.10403443     0.20700
C734        C  0.57336617  0.33567171  0.12399359     0.25700
C735        C  0.57243931  0.38084890  0.14970677    -0.22200
C736        C  0.63352968  0.42162496  0.15235999     0.20600
F737        F  0.63991006  0.46902524  0.17397397    -0.12200
F738        F  0.75279085  0.44339845  0.14335265    -0.14600
F739        F  0.51651848  0.29660925  0.11890448    -0.14600
F740        F  0.62727050  0.27752715  0.08557362    -0.12200
C741        C  0.94395133  0.38640814  0.11375219     0.25800
C742        C  0.94111328  0.37265969  0.15105150    -0.22300
C743        C  0.87388884  0.35743591  0.16418209     0.20700
C744        C  0.81671463  0.34597136  0.14124774     0.25700
C745        C  0.82035420  0.36243627  0.10462259    -0.22200
C746        C  0.88704296  0.37285565  0.09082891     0.20600
F747        F  0.89756090  0.38114665  0.05515484    -0.12200
F748        F  0.00004327  0.41798247  0.09888884    -0.14600
F749        F  0.75745973  0.32060884  0.15618865    -0.14600
F750        F  0.85974758  0.36247053  0.19915392    -0.12200
C751        C  0.55843280  0.09782035  0.10902569     0.25800
C752        C  0.56607289  0.11516352  0.14537142    -0.22300
C753        C  0.63398262  0.12529298  0.15934882     0.20700
C754        C  0.68926664  0.13386408  0.13666102     0.25700
C755        C  0.68245851  0.11863647  0.09970913    -0.22200
C756        C  0.61400263  0.10607218  0.08630828     0.20600
F757        F  0.59773415  0.11020597  0.05106850    -0.12200
F758        F  0.49715721  0.07439831  0.09412045    -0.14600
F759        F  0.74744076  0.16459815  0.15112272    -0.14600
F760        F  0.64767857  0.14055065  0.19422270    -0.12200
C761        C  0.87133610  0.17057134  0.09921172     0.25800
C762        C  0.81356104  0.12625513  0.10097178    -0.22300
C763        C  0.81888594  0.08159911  0.12657088     0.20700
C764        C  0.87870803  0.07721132  0.14678730     0.25700
C765        C  0.93655921  0.12131754  0.14481706    -0.22200
C766        C  0.93209290  0.16488749  0.11839375     0.20600
F767        F  0.99027199  0.19770908  0.10774075    -0.12200
F768        F  0.87134884  0.22037973  0.07997133    -0.14600
F769        F  0.88033440  0.02603301  0.16446402    -0.14600
F770        F  0.76299355  0.04224354  0.13248048    -0.12200
C771        C  0.69116991  0.01247346  0.04861473     0.25800
C772        C  0.74783739  0.05742450  0.05512794    -0.22300
C773        C  0.81149587  0.03759110  0.05131168     0.20700
C774        C  0.81860088  0.48078584  0.06260631     0.25700
C775        C  0.76055748  0.43505828  0.06334288    -0.22200
C776        C  0.69897785  0.45285015  0.05009350     0.20600
F777        F  0.64278135  0.41262734  0.04307396    -0.12200
F778        F  0.63046833  0.02338258  0.03528755    -0.14600
F779        F  0.88139095  0.47725947  0.07640822    -0.14600
F780        F  0.86933132  0.07652814  0.04625568    -0.12200
O781        O  0.69606777  0.19077397  0.54002087    -0.72200
O782        O  0.68631655  0.29363957  0.96020708    -0.72300
O783        O  0.68418874  0.17452623  0.96762831    -0.72300
O784        O  0.69641676  0.30950126  0.53265333    -0.72400
O785        O  0.80591787  0.30396488  0.54209245    -0.72300
O786        O  0.79383811  0.20289287  0.95967372    -0.72300
O787        O  0.79719495  0.32173604  0.96981301    -0.72200
O788        O  0.80514145  0.18661369  0.53031214    -0.72300
Ni789      Ni  0.68950219  0.24246182  0.49995120     1.25400
Ni790      Ni  0.80272650  0.25391945  0.00002478     1.25400
C791        C  0.75046826  0.16790849  0.54703077     0.91200
C792        C  0.74120870  0.32826813  0.95298611     0.89900
C793        C  0.73983731  0.16780818  0.95166755     0.89900
C794        C  0.75236830  0.32598559  0.55058324     0.90100
C795        C  0.74957197  0.11793732  0.57454115    -0.00300
C796        C  0.75872812  0.37288510  0.58126167    -0.00300
C797        C  0.50666384  0.12504479  0.66776244    -0.00300
C798        C  0.51127853  0.37348058  0.67574375    -0.00300
O799        O  0.94081501  0.43333605  0.78047998    -0.72200
O800        O  0.94522666  0.06073148  0.71314844    -0.72300
O801        O  0.95206634  0.44335110  0.70851015    -0.72300
O802        O  0.93855155  0.05340226  0.78451814    -0.72400
O803        O  0.55027517  0.07973494  0.78366052    -0.72300
O804        O  0.56138494  0.44459365  0.72288445    -0.72300
O805        O  0.55714760  0.06245000  0.71169918    -0.72200
O806        O  0.55018471  0.46214041  0.79444605    -0.72300
Ni807      Ni  0.93975531  0.99695988  0.74662832     1.25400
Ni808      Ni  0.55929390  0.01303389  0.75331375     1.25400
C809        C  0.99428822  0.42748923  0.79965876     0.90000
C810        C  0.50247023  0.08029205  0.69913878     0.89900
C811        C  0.00886722  0.42338628  0.70372592     0.89900
C812        C  0.99167960  0.08755263  0.79576673     0.90100
C813        C  0.74113957  0.11992015  0.92224131    -0.00300
C814        C  0.74174975  0.37665785  0.92414308    -0.00300
C815        C  0.98778647  0.13496950  0.82536624    -0.00300
C816        C  0.98997414  0.37843840  0.82804215    -0.00300
C817        C  0.91908671  0.21966092  0.80392687     0.25800
C818        C  0.98178141  0.19549905  0.80652660    -0.22300
C819        C  0.53792713  0.23219652  0.79212445     0.20700
C820        C  0.53775394  0.29356307  0.79160942     0.25700
C821        C  0.98245410  0.31822092  0.80675297    -0.22200
C822        C  0.91961832  0.28045623  0.80424561     0.20600
F823        F  0.85892868  0.30190299  0.80314228    -0.12200
F824        F  0.85745714  0.18588930  0.79950203    -0.14600
F825        F  0.58618077  0.32632087  0.77231346    -0.14600
F826        F  0.59466793  0.21006226  0.78193584    -0.12200
C827        C  0.55378615  0.37992557  0.89120465     0.25800
C828        C  0.55680721  0.38356214  0.85324422    -0.22300
C829        C  0.62364095  0.38428755  0.83961739     0.20700
C830        C  0.67838275  0.37063289  0.86083837     0.25700
C831        C  0.67511686  0.36749755  0.89878097    -0.22200
C832        C  0.60788781  0.36438233  0.91210871     0.20600
F833        F  0.59079510  0.34346412  0.94510851    -0.12200
F834        F  0.50090620  0.39515625  0.90988322    -0.14600
F835        F  0.73262026  0.35712725  0.84254940    -0.14600
F836        F  0.64049770  0.40321673  0.80626041    -0.12200
C837        C  0.88729664  0.42793874  0.85521239     0.25800
C838        C  0.92452514  0.37976569  0.85234724    -0.22300
C839        C  0.90160365  0.33114583  0.87460543     0.20700
C840        C  0.84382197  0.32890099  0.89601030     0.25700
C841        C  0.80776015  0.37741407  0.89989039    -0.22200
C842        C  0.83039346  0.42620582  0.87760216     0.20600
F843        F  0.79365556  0.47137877  0.87533312    -0.12200
F844        F  0.90552629  0.47851885  0.83737591    -0.14600
F845        F  0.82214521  0.27661076  0.91096281    -0.14600
F846        F  0.93759103  0.28542529  0.87690933    -0.12200
C847        C  0.66091418  0.17698940  0.88328276     0.25800
C848        C  0.67401661  0.12240856  0.89751998    -0.22300
C849        C  0.62619158  0.07304475  0.88609477     0.20700
C850        C  0.56773826  0.07898011  0.86477759     0.25700
C851        C  0.55503993  0.13334980  0.85017023    -0.22200
C852        C  0.60310200  0.18276917  0.86126357     0.20600
F853        F  0.59073819  0.23834861  0.85580182    -0.12200
F854        F  0.70381113  0.22673540  0.89135474    -0.14600
F855        F  0.52363799  0.02950535  0.85765597    -0.14600
F856        F  0.63898734  0.01736979  0.89074703    -0.12200
C857        C  0.87304471  0.15643689  0.90610496     0.25800
C858        C  0.80528653  0.12897537  0.89657956    -0.22300
C859        C  0.80095517  0.09736322  0.86388819     0.20700
C860        C  0.85706643  0.09550245  0.84189844     0.25700
C861        C  0.92436297  0.12386371  0.85125079    -0.22200
C862        C  0.92857072  0.15561737  0.88382116     0.20600
F863        F  0.98765112  0.18790186  0.89556770    -0.12200
F864        F  0.89263589  0.17772008  0.93895513    -0.14600
F865        F  0.83903567  0.07250779  0.80931909    -0.14600
F866        F  0.74139243  0.06635564  0.85178804    -0.12200
C867        C  0.68761185  0.46259766  0.95637603     0.25800
C868        C  0.74542717  0.43721862  0.94479876    -0.22300
C869        C  0.80770994  0.47527607  0.94902003     0.20700
C870        C  0.80800317  0.03611011  0.94747264     0.25700
C871        C  0.74550941  0.05992225  0.94195294    -0.22200
C872        C  0.68783526  0.02379918  0.95491008     0.20600
F873        F  0.62974572  0.04627731  0.96231067    -0.12200
F874        F  0.63425669  0.43092072  0.97267180    -0.14600
F875        F  0.86921005  0.07015816  0.95244068    -0.14600
F876        F  0.86839771  0.45405968  0.95195029    -0.12200
C877        C  0.57763904  0.28853575  0.69535854     0.25800
C878        C  0.51582964  0.31250935  0.69609590    -0.22300
C879        C  0.95960589  0.27003109  0.70610111     0.20700
C880        C  0.96117816  0.20933346  0.70142616     0.25700
C881        C  0.51677245  0.18916696  0.68417787    -0.22200
C882        C  0.57609759  0.23262141  0.68098985     0.20600
F883        F  0.62868954  0.22828284  0.65916481    -0.12200
F884        F  0.63926327  0.32344738  0.69848726    -0.14600
F885        F  0.90571035  0.17099346  0.71126520    -0.14600
F886        F  0.91119086  0.28430622  0.72790402    -0.12200
C887        C  0.69594537  0.41241711  0.63454371     0.25800
C888        C  0.69521704  0.36961592  0.60709814    -0.22300
C889        C  0.63441934  0.32948387  0.60389161     0.20700
C890        C  0.57644261  0.33722386  0.62320800     0.25700
C891        C  0.57540948  0.38137781  0.64962326    -0.22200
C892        C  0.63692576  0.42125816  0.65335388     0.20600
F893        F  0.64317499  0.46764000  0.67576812    -0.12200
F894        F  0.75681547  0.44034040  0.64693431    -0.14600
F895        F  0.51921660  0.29937359  0.61668576    -0.14600
F896        F  0.63074465  0.27924045  0.58492225    -0.12200
C897        C  0.94707765  0.38855125  0.61414119     0.25800
C898        C  0.94429095  0.37155817  0.65095923    -0.22300
C899        C  0.87718403  0.35370573  0.66365319     0.20700
C900        C  0.82024372  0.34380075  0.64049910     0.25700
C901        C  0.82394042  0.36376959  0.60453246    -0.22200
C902        C  0.89060532  0.37550406  0.59096809     0.20600
F903        F  0.90164514  0.38307313  0.55528999    -0.12200
F904        F  0.00300621  0.42142696  0.59996839    -0.14600
F905        F  0.76115902  0.31616389  0.65455232    -0.14600
F906        F  0.86257095  0.35535479  0.69869743    -0.12200
C907        C  0.56099922  0.09968625  0.60738172     0.25800
C908        C  0.56818010  0.11362740  0.64429109    -0.22300
C909        C  0.63587728  0.12142997  0.65874090     0.20700
C910        C  0.69208145  0.12860812  0.63660938     0.25700
C911        C  0.68543816  0.11771535  0.59907225    -0.22200
C912        C  0.61719366  0.10820075  0.58515035     0.20600
F913        F  0.60208272  0.11320981  0.54978629    -0.12200
F914        F  0.49972635  0.07935397  0.59136023    -0.14600
F915        F  0.75118718  0.15497616  0.65251725    -0.14600
F916        F  0.64934396  0.13622737  0.69368258    -0.12200
C917        C  0.87202458  0.17122108  0.59985069     0.25800
C918        C  0.81645278  0.12477239  0.59975282    -0.22300
C919        C  0.82375191  0.07793696  0.62340265     0.20700
C920        C  0.88369506  0.07401530  0.64364041     0.25700
C921        C  0.93894493  0.12067334  0.64380928    -0.22200
C922        C  0.93300760  0.16590167  0.61880455     0.20600
F923        F  0.99039928  0.20045932  0.60895963    -0.12200
F924        F  0.86891144  0.22307302  0.58326029    -0.14600
F925        F  0.88925423  0.02123537  0.65862824    -0.14600
F926        F  0.76992697  0.03554409  0.62676008    -0.12200
C927        C  0.69165591  0.01262424  0.54889146     0.25800
C928        C  0.74875237  0.05784169  0.55334341    -0.22300
C929        C  0.81199923  0.03792570  0.54824520     0.20700
C930        C  0.82016484  0.48155190  0.56024706     0.25700
C931        C  0.76227153  0.43598837  0.56327228    -0.22200
C932        C  0.69958083  0.45321169  0.55118343     0.20600
F933        F  0.64283663  0.41287166  0.54568382    -0.12200
F934        F  0.62966825  0.02281262  0.53691682    -0.14600
F935        F  0.88394768  0.47877712  0.57288266    -0.14600
F936        F  0.86926464  0.07711515  0.54233231    -0.12200
O937        O  0.69159549  0.68935732  0.04045048    -0.72200
O938        O  0.69387450  0.79532261  0.45980719    -0.72300
O939        O  0.69140403  0.67638789  0.46726748    -0.72300
O940        O  0.69183069  0.80799553  0.03302992    -0.72400
O941        O  0.80164319  0.80270169  0.04145701    -0.72300
O942        O  0.80154895  0.70423930  0.46052494    -0.72300
O943        O  0.80449369  0.82325135  0.47040924    -0.72200
O944        O  0.80027391  0.68525880  0.02964563    -0.72300
Ni945      Ni  0.68352237  0.74081121  0.00038913     1.25400
Ni946      Ni  0.80880684  0.75535862  0.50076693     1.25400
C947        C  0.74650491  0.66698410  0.04717151     0.91200
C948        C  0.74904180  0.82993977  0.45311627     0.89900
C949        C  0.74762814  0.66942945  0.45197161     0.89900
C950        C  0.74836135  0.82471700  0.05041488     0.90100
C951        C  0.74690546  0.61820340  0.07538901    -0.00300
C952        C  0.75539923  0.87170322  0.08107382    -0.00300
C953        C  0.50444795  0.62621347  0.16886433    -0.00300
C954        C  0.50821185  0.87425925  0.17578988    -0.00300
O955        O  0.94666951  0.93304687  0.28106758    -0.72200
O956        O  0.94643525  0.56295380  0.21588179    -0.72300
O957        O  0.95238296  0.94560935  0.20902824    -0.72300
O958        O  0.94531921  0.55269757  0.28696435    -0.72400
O959        O  0.55631523  0.58061290  0.28320768    -0.72300
O960        O  0.56169608  0.94463998  0.22232643    -0.72300
O961        O  0.55743343  0.56242339  0.21108177    -0.72200
O962        O  0.55624744  0.96278958  0.29402088    -0.72300
Ni963      Ni  0.94319877  0.49780189  0.24828539     1.25400
Ni964      Ni  0.56267832  0.51344473  0.25271642     1.25400
C965        C  0.00096631  0.92751668  0.29965908     0.90000
C966        C  0.50223489  0.58149636  0.20022688     0.89900
C967        C  0.00813082  0.92450748  0.20359191     0.89900
C968        C  0.99869153  0.58773550  0.29671998     0.90100
C969        C  0.74965013  0.62148919  0.42271827    -0.00300
C970        C  0.75043987  0.87850521  0.42437058    -0.00300
C971        C  0.99583016  0.63558520  0.32597883    -0.00300
C972        C  0.99779371  0.87860800  0.32809940    -0.00300
C973        C  0.92728666  0.72001465  0.30361655     0.25800
C974        C  0.98989827  0.69574041  0.30665403    -0.22300
C975        C  0.54615562  0.73225361  0.29231179     0.20700
C976        C  0.54648341  0.79366964  0.29207093     0.25700
C977        C  0.99088650  0.81840702  0.30678828    -0.22200
C978        C  0.92799499  0.78083811  0.30371133     0.20600
F979        F  0.86738577  0.80240814  0.30246971    -0.12200
F980        F  0.86560098  0.68641168  0.29907303    -0.14600
F981        F  0.59641203  0.82637382  0.27376611    -0.14600
F982        F  0.60275289  0.70982270  0.28219980    -0.12200
C983        C  0.56156364  0.88079652  0.39141341     0.25800
C984        C  0.56454161  0.88456034  0.35342079    -0.22300
C985        C  0.63152552  0.88651056  0.33984461     0.20700
C986        C  0.68665147  0.87349423  0.36102567     0.25700
C987        C  0.68365831  0.87028251  0.39901870    -0.22200
C988        C  0.61645731  0.86711258  0.41246077     0.20600
F989        F  0.59985975  0.84723725  0.44571438    -0.12200
F990        F  0.50769641  0.89397074  0.41011225    -0.14600
F991        F  0.74097408  0.86066057  0.34255580    -0.14600
F992        F  0.64797575  0.90581077  0.30650043    -0.12200
C993        C  0.89613482  0.92849183  0.35567058     0.25800
C994        C  0.93226789  0.87975613  0.35232892    -0.22300
C995        C  0.90870417  0.83102574  0.37434529     0.20700
C996        C  0.85148619  0.82947745  0.39613760     0.25700
C997        C  0.81613301  0.87842532  0.40009513    -0.22200
C998        C  0.83929535  0.92713115  0.37791388     0.20600
F999        F  0.80322591  0.97275220  0.37562668    -0.12200
F1000       F  0.91549617  0.97944104  0.33852898    -0.14600
F1001       F  0.82999100  0.77764250  0.41165515    -0.14600
F1002       F  0.94411627  0.78496652  0.37646107    -0.12200
C1003       C  0.66992828  0.67770198  0.38307028     0.25800
C1004       C  0.68244371  0.62346003  0.39800085    -0.22300
C1005       C  0.63422959  0.57404574  0.38712139     0.20700
C1006       C  0.57589745  0.57976275  0.36560575     0.25700
C1007       C  0.56327998  0.63397488  0.35066358    -0.22200
C1008       C  0.61180188  0.68337328  0.36130532     0.20600
F1009       F  0.59989915  0.73899100  0.35557189    -0.12200
F1010       F  0.71399917  0.72722457  0.39006555    -0.14600
F1011       F  0.53188754  0.53020827  0.35869098    -0.14600
F1012       F  0.64668844  0.51841311  0.39235582    -0.12200
C1013       C  0.88127451  0.65879813  0.40638571     0.25800
C1014       C  0.81354488  0.63101800  0.39701140    -0.22300
C1015       C  0.80904083  0.59909572  0.36447336     0.20700
C1016       C  0.86485474  0.59726515  0.34241095     0.25700
C1017       C  0.93238789  0.62516983  0.35180345    -0.22200
C1018       C  0.93688793  0.65718552  0.38425484     0.20600
F1019       F  0.99628242  0.68913827  0.39591129    -0.12200
F1020       F  0.90075044  0.68100115  0.43902893    -0.14600
F1021       F  0.84605513  0.57513668  0.30968601    -0.14600
F1022       F  0.74948079  0.56779783  0.35254946    -0.12200
C1023       C  0.69803468  0.96425952  0.45755494     0.25800
C1024       C  0.75526614  0.93904286  0.44515221    -0.22300
C1025       C  0.81764379  0.97716246  0.44881322     0.20700
C1026       C  0.81776000  0.53796780  0.44734619     0.25700
C1027       C  0.75497315  0.56163444  0.44246170    -0.22200
C1028       C  0.69794375  0.52543711  0.45605468     0.20600
F1029       F  0.64010045  0.54780206  0.46406573    -0.12200
F1030       F  0.64599775  0.93238237  0.47474155    -0.14600
F1031       F  0.87905963  0.57211028  0.45184239    -0.14600
F1032       F  0.87849062  0.95608251  0.45114933    -0.12200
C1033       C  0.57298946  0.78998220  0.19725129     0.25800
C1034       C  0.51105329  0.81366765  0.19677456    -0.22300
C1035       C  0.95404041  0.77086364  0.20558246     0.20700
C1036       C  0.95665013  0.71021087  0.20158203     0.25700
C1037       C  0.51332571  0.69042443  0.18517422    -0.22200
C1038       C  0.57239239  0.73434690  0.18264508     0.20600
F1039       F  0.62494789  0.73138548  0.16059089    -0.12200
F1040       F  0.63421388  0.82544421  0.20065331    -0.14600
F1041       F  0.90089268  0.67162962  0.21077600    -0.14600
F1042       F  0.90214086  0.78488402  0.22506707    -0.12200
C1043       C  0.69194458  0.91308704  0.13296847     0.25800
C1044       C  0.69129627  0.86908826  0.10641121    -0.22300
C1045       C  0.63082890  0.82827414  0.10403289     0.20700
C1046       C  0.57338153  0.83569219  0.12398887     0.25700
C1047       C  0.57245637  0.88086486  0.14970535    -0.22200
C1048       C  0.63355096  0.92163548  0.15236340     0.20600
F1049       F  0.63993452  0.96902980  0.17398238    -0.12200
F1050       F  0.75281582  0.94339856  0.14336268    -0.14600
F1051       F  0.51653221  0.79663398  0.11889400    -0.14600
F1052       F  0.62728358  0.77754416  0.08557202    -0.12200
C1053       C  0.94396894  0.88642819  0.11375214     0.25800
C1054       C  0.94113087  0.87267090  0.15105059    -0.22300
C1055       C  0.87390676  0.85743720  0.16417961     0.20700
C1056       C  0.81673448  0.84597284  0.14124440     0.25700
C1057       C  0.82037371  0.86244783  0.10462134    -0.22200
C1058       C  0.88706178  0.87287417  0.09082778     0.20600
F1059       F  0.89757724  0.88116850  0.05515371    -0.12200
F1060       F  0.00005944  0.91800907  0.09889128    -0.14600
F1061       F  0.75748038  0.82060227  0.15618253    -0.14600
F1062       F  0.85976157  0.86246564  0.19915111    -0.12200
C1063       C  0.55843074  0.59783588  0.10902498     0.25800
C1064       C  0.56606888  0.61516680  0.14537271    -0.22300
C1065       C  0.63397693  0.62529255  0.15935293     0.20700
C1066       C  0.68926349  0.63386342  0.13666766     0.25700
C1067       C  0.68245775  0.61864345  0.09971460    -0.22200
C1068       C  0.61400331  0.60609011  0.08631030     0.20600
F1069       F  0.59774067  0.61022983  0.05106982    -0.12200
F1070       F  0.49715550  0.57442368  0.09411507    -0.14600
F1071       F  0.74743757  0.66459143  0.15113345    -0.14600
F1072       F  0.64766800  0.64055296  0.19422688    -0.12200
C1073       C  0.87132738  0.67057938  0.09922055     0.25800
C1074       C  0.81355762  0.62625875  0.10097928    -0.22300
C1075       C  0.81888552  0.58160223  0.12657775     0.20700
C1076       C  0.87871089  0.57721336  0.14679031     0.25700
C1077       C  0.93655665  0.62132402  0.14482163    -0.22200
C1078       C  0.93208438  0.66489935  0.11840254     0.20600
F1079       F  0.99025920  0.69773023  0.10775298    -0.12200
F1080       F  0.87133290  0.72038954  0.07998264    -0.14600
F1081       F  0.88034678  0.52603060  0.16446082    -0.14600
F1082       F  0.76299340  0.54224910  0.13249175    -0.12200
C1083       C  0.69116123  0.51247252  0.04862589     0.25800
C1084       C  0.74783186  0.55742246  0.05513875    -0.22300
C1085       C  0.81148909  0.53758631  0.05132245     0.20700
C1086       C  0.81861097  0.98079551  0.06260332     0.25700
C1087       C  0.76057005  0.93506617  0.06334200    -0.22200
C1088       C  0.69898883  0.95285212  0.05008953     0.20600
F1089       F  0.64279523  0.91262610  0.04307062    -0.12200
F1090       F  0.63044860  0.52338305  0.03531527    -0.14600
F1091       F  0.88139695  0.97727834  0.07641395    -0.14600
F1092       F  0.86932734  0.57652166  0.04626982    -0.12200
O1093       O  0.69608903  0.69076945  0.54001466    -0.72200
O1094       O  0.68631580  0.79364049  0.96021277    -0.72300
O1095       O  0.68418417  0.67452450  0.96764011    -0.72300
O1096       O  0.69643326  0.80949808  0.53264662    -0.72400
O1097       O  0.80593915  0.80397610  0.54208316    -0.72300
O1098       O  0.79383063  0.70289138  0.95967708    -0.72300
O1099       O  0.79719519  0.82173705  0.96981689    -0.72200
O1100       O  0.80516561  0.68661778  0.53030900    -0.72300
Ni1101     Ni  0.68951903  0.74245583  0.49994576     1.25400
Ni1102     Ni  0.80273014  0.75391957  0.00002809     1.25400
C1103       C  0.75048903  0.66790491  0.54702458     0.91200
C1104       C  0.74120716  0.82827032  0.95299176     0.89900
C1105       C  0.73982905  0.66780323  0.95167681     0.89900
C1106       C  0.75238568  0.82599210  0.55057396     0.90100
C1107       C  0.74958639  0.61792721  0.57453271    -0.00300
C1108       C  0.75874179  0.87289284  0.58125253    -0.00300
C1109       C  0.50667390  0.62504478  0.66775531    -0.00300
C1110       C  0.51129561  0.87348241  0.67573408    -0.00300
O1111       O  0.94081759  0.93332661  0.78048288    -0.72200
O1112       O  0.94522782  0.56073810  0.71314161    -0.72300
O1113       O  0.95206796  0.94334122  0.70851018    -0.72300
O1114       O  0.93854397  0.55341150  0.78451473    -0.72400
O1115       O  0.55026644  0.57974171  0.78366319    -0.72300
O1116       O  0.56138913  0.94458677  0.72288189    -0.72300
O1117       O  0.55714811  0.56245782  0.71169935    -0.72200
O1118       O  0.55018799  0.96212946  0.79444766    -0.72300
Ni1119     Ni  0.93975270  0.49696977  0.74662510     1.25400
Ni1120     Ni  0.55929000  0.51304332  0.75331434     1.25400
C1121       C  0.99428885  0.92748222  0.79966332     0.90000
C1122       C  0.50247322  0.58029720  0.69913457     0.89900
C1123       C  0.00887304  0.92338304  0.70372221     0.89900
C1124       C  0.99167232  0.58755434  0.79576995     0.90100
C1125       C  0.74112525  0.61990890  0.92225349    -0.00300
C1126       C  0.74174560  0.87665974  0.92414868    -0.00300
C1127       C  0.98777636  0.63495948  0.82537657    -0.00300
C1128       C  0.98996892  0.87843424  0.82804971    -0.00300
C1129       C  0.91907271  0.71965488  0.80394824     0.25800
C1130       C  0.98176813  0.69549303  0.80654341    -0.22300
C1131       C  0.53790405  0.73218845  0.79213379     0.20700
C1132       C  0.53773094  0.79355485  0.79161539     0.25700
C1133       C  0.98244166  0.81821449  0.80676306    -0.22200
C1134       C  0.91960511  0.78044994  0.80426147     0.20600
F1135       F  0.85891539  0.80189682  0.80315944    -0.12200
F1136       F  0.85744030  0.68588391  0.79953351    -0.14600
F1137       F  0.58614251  0.82630919  0.77230780    -0.14600
F1138       F  0.59463867  0.71005174  0.78193836    -0.12200
C1139       C  0.55378028  0.87993013  0.89121478     0.25800
C1140       C  0.55679909  0.88355497  0.85325327    -0.22300
C1141       C  0.62362921  0.88426640  0.83962561     0.20700
C1142       C  0.67836932  0.87061229  0.86084747     0.25700
C1143       C  0.67510901  0.86749685  0.89879033    -0.22200
C1144       C  0.60788343  0.86439191  0.91212045     0.20600
F1145       F  0.59079715  0.84348626  0.94512397    -0.12200
F1146       F  0.50090129  0.89516598  0.90989207    -0.14600
F1147       F  0.73259975  0.85708752  0.84256029    -0.14600
F1148       F  0.64048421  0.90318119  0.80626606    -0.12200
C1149       C  0.88728460  0.92793436  0.85521296     0.25800
C1150       C  0.92452090  0.87976518  0.85235470    -0.22300
C1151       C  0.90160229  0.83114781  0.87461600     0.20700
C1152       C  0.84381563  0.82890116  0.89601668     0.25700
C1153       C  0.80775008  0.87741241  0.89989261    -0.22200
C1154       C  0.83037646  0.92619993  0.87759940     0.20600
F1155       F  0.79363223  0.97136900  0.87532543    -0.12200
F1156       F  0.90551302  0.97851287  0.83737444    -0.14600
F1157       F  0.82213370  0.77660900  0.91096594    -0.14600
F1158       F  0.93759270  0.78542889  0.87692446    -0.12200
C1159       C  0.66089779  0.67697890  0.88329578     0.25800
C1160       C  0.67400313  0.62239743  0.89753116    -0.22300
C1161       C  0.62618403  0.57303273  0.88610112     0.20700
C1162       C  0.56773434  0.57896724  0.86478076     0.25700
C1163       C  0.55502964  0.63333854  0.85017836    -0.22200
C1164       C  0.60308820  0.68275814  0.86127435     0.20600
F1165       F  0.59072397  0.73833709  0.85581121    -0.12200
F1166       F  0.70378859  0.72672640  0.89137197    -0.14600
F1167       F  0.52364606  0.52948963  0.85765011    -0.14600
F1168       F  0.63898452  0.51735848  0.89075079    -0.12200
C1169       C  0.87303503  0.65641068  0.90611937     0.25800
C1170       C  0.80527503  0.62895603  0.89659228    -0.22300
C1171       C  0.80094427  0.59734512  0.86390024     0.20700
C1172       C  0.85705743  0.59548109  0.84191134     0.25700
C1173       C  0.92435388  0.62384444  0.85126279    -0.22200
C1174       C  0.92856084  0.65559375  0.88383499     0.20600
F1175       F  0.98763948  0.68787921  0.89558235    -0.12200
F1176       F  0.89262542  0.67769480  0.93896951    -0.14600
F1177       F  0.83902814  0.57248130  0.80933324    -0.14600
F1178       F  0.74138087  0.56634172  0.85179816    -0.12200
C1179       C  0.68762391  0.96261532  0.95637598     0.25800
C1180       C  0.74543288  0.93722469  0.94480156    -0.22300
C1181       C  0.80771964  0.97527930  0.94901349     0.20700
C1182       C  0.80798507  0.53610687  0.94749480     0.25700
C1183       C  0.74549037  0.55991343  0.94196905    -0.22200
C1184       C  0.68781426  0.52378100  0.95491687     0.20600
F1185       F  0.62971910  0.54625055  0.96231750    -0.12200
F1186       F  0.63426538  0.93095017  0.97267544    -0.14600
F1187       F  0.86918068  0.57016151  0.95248739    -0.14600
F1188       F  0.86840458  0.95405804  0.95194383    -0.12200
C1189       C  0.57766789  0.78853449  0.69533641     0.25800
C1190       C  0.51586028  0.81251023  0.69608194    -0.22300
C1191       C  0.95963980  0.77003958  0.70609991     0.20700
C1192       C  0.96120502  0.70934056  0.70142440     0.25700
C1193       C  0.51679081  0.68916764  0.68416838    -0.22200
C1194       C  0.57611711  0.73261742  0.68097144     0.20600
F1195       F  0.62870300  0.72826757  0.65914417    -0.12200
F1196       F  0.63929567  0.82344131  0.69846093    -0.14600
F1197       F  0.90574111  0.67100351  0.71127176    -0.14600
F1198       F  0.91125385  0.78432219  0.72791930    -0.12200
C1199       C  0.69596561  0.91242217  0.63453479     0.25800
C1200       C  0.69523170  0.86962417  0.60708753    -0.22300
C1201       C  0.63443168  0.82949759  0.60387814     0.20700
C1202       C  0.57645524  0.83724165  0.62319206     0.25700
C1203       C  0.57542617  0.88138854  0.64961288    -0.22200
C1204       C  0.63694981  0.92125942  0.65335038     0.20600
F1205       F  0.64321269  0.96762214  0.67577969    -0.12200
F1206       F  0.75684000  0.94034936  0.64691742    -0.14600
F1207       F  0.51922736  0.79939810  0.61666230    -0.14600
F1208       F  0.63075225  0.77925355  0.58490909    -0.12200
C1209       C  0.94708883  0.88857405  0.61413283     0.25800
C1210       C  0.94430485  0.87156323  0.65094866    -0.22300
C1211       C  0.87719935  0.85369305  0.66363974     0.20700
C1212       C  0.82025894  0.84379493  0.64048508     0.25700
C1213       C  0.82395430  0.86377724  0.60452169    -0.22200
C1214       C  0.89061756  0.87552895  0.59095738     0.20600
F1215       F  0.90164595  0.88314329  0.55528092    -0.12200
F1216       F  0.00301435  0.92146276  0.59996550    -0.14600
F1217       F  0.76117346  0.81615293  0.65453464    -0.14600
F1218       F  0.86258600  0.85531726  0.69868431    -0.12200
C1219       C  0.56100920  0.59969688  0.60737068     0.25800
C1220       C  0.56818858  0.61362218  0.64428263    -0.22300
C1221       C  0.63588547  0.62141108  0.65873366     0.20700
C1222       C  0.69209417  0.62857492  0.63660463     0.25700
C1223       C  0.68545234  0.61770253  0.59906520    -0.22200
C1224       C  0.61720781  0.60820437  0.58514154     0.20600
F1225       F  0.60210157  0.61321490  0.54977693    -0.12200
F1226       F  0.49973466  0.57938817  0.59134342    -0.14600
F1227       F  0.75120574  0.65491515  0.65251941    -0.14600
F1228       F  0.64935339  0.63621078  0.69367475    -0.12200
C1229       C  0.87201974  0.67122228  0.59985311     0.25800
C1230       C  0.81646774  0.62475738  0.59974228    -0.22300
C1231       C  0.82378194  0.57791281  0.62338237     0.20700
C1232       C  0.88372333  0.57400067  0.64362398     0.25700
C1233       C  0.93895348  0.62067537  0.64380518    -0.22200
C1234       C  0.93300174  0.66591327  0.61880979     0.20600
F1235       F  0.99038356  0.70049265  0.60897587    -0.12200
F1236       F  0.86888211  0.72308208  0.58327664    -0.14600
F1237       F  0.88930321  0.52122013  0.65860601    -0.14600
F1238       F  0.76997232  0.53550342  0.62672683    -0.12200
C1239       C  0.69165175  0.51261997  0.54889327     0.25800
C1240       C  0.74875474  0.55783260  0.55333302    -0.22300
C1241       C  0.81199570  0.53790900  0.54822987     0.20700
C1242       C  0.82016941  0.98157524  0.56027132     0.25700
C1243       C  0.76228457  0.93599844  0.56326791    -0.22200
C1244       C  0.69959819  0.95321603  0.55116698     0.20600
F1245       F  0.64286483  0.91286974  0.54565369    -0.12200
F1246       F  0.62967031  0.52281062  0.53690976    -0.14600
F1247       F  0.88392426  0.97882665  0.57295892    -0.14600
F1248       F  0.86926141  0.57709415  0.54230927    -0.12200
loop_ 
_geom_bond_atom_site_label_1 
_geom_bond_atom_site_label_2 
_geom_bond_distance 
_geom_bond_site_symmetry_2 
_ccdc_geom_bond_type 
O1           Ni9   1.922       .  S
O1           C11   1.284       .  A
O2         Ni165   1.922       .  S
O2           C12   1.279       .  A
O3         Ni165   1.961       .  S
O3           C13   1.288       .  A
O4           Ni9   1.961       .  S
O4           C14   1.286       .  A
O5         Ni166   1.919       .  S
O5           C14   1.282       .  A
O6          Ni10   1.904       .  S
O6           C13   1.270       .  A
O7          Ni10   1.938       .  S
O7           C12   1.285       .  A
O8         Ni166   1.921       .  S
O8           C11   1.275       .  A
Ni9         O158   1.924   1_554  S
Ni9         O159   1.964   1_554  S
Ni9        Ni166   2.324       .  S
Ni10        O161   1.918       .  S
Ni10        O164   1.919       .  S
Ni10       Ni165   2.325       .  S
C11          C15   1.538       .  S
C12          C34   1.545       .  S
C13          C33   1.563       .  S
C14          C16   1.570       .  S
C15         C131   1.579       .  S
C15         C138   1.596       .  S
C15         C148   1.598       .  S
C16         C108   1.589       .  S
C16         C121   1.576       .  S
C16         C151   1.591       .  S
C17          C30   1.553       .  S
C17         C101   1.588       .  S
C17         C128   1.565       .  S
C17         C765   1.584   1_455  S
C18          C98   1.605       .  S
C18         C111   1.603       .  S
C18         C655   1.560       .  S
C18         C742   1.591   1_455  S
O19        Ni339   1.933       .  S
O19          C29   1.284       .  A
O20         Ni27   1.918   1_545  S
O20         C654   1.273       .  A
O21        Ni339   1.929       .  S
O21          C31   1.285       .  A
O22         Ni27   1.921   1_545  S
O22          C32   1.276       .  A
O23         Ni28   1.947       .  S
O23         C656   1.285   1_455  A
O24        Ni340   1.953       .  S
O24         C655   1.283       .  A
O25         Ni28   1.926       .  S
O25          C30   1.288       .  A
O26        Ni340   1.925       .  S
O26         C653   1.281       .  A
Ni27        O331   1.933       .  S
Ni27        O333   1.929       .  S
Ni27       Ni652   2.331   1_565  S
Ni28        O336   1.953   1_545  S
Ni28        O338   1.925   1_545  S
Ni28       Ni651   2.331   1_445  S
C29         O650   1.281       .  A
C29          C36   1.540       .  S
C30         O644   1.273   1_455  A
C31         O648   1.283       .  A
C31         C642   1.560       .  S
C32         O647   1.285       .  A
C32          C35   1.564       .  S
C33          C68   1.603       .  S
C33          C78   1.589       .  S
C33          C91   1.577       .  S
C34          C51   1.593       .  S
C34          C61   1.597       .  S
C34          C88   1.590       .  S
C35          C38   1.578       .  S
C35          C81   1.585       .  S
C35         C695   1.605       .  S
C36          C41   1.590       .  S
C36          C58   1.596       .  S
C36         C672   1.592       .  S
C37          C38   1.429       .  A
C37          C42   1.400       .  A
C37          F44   1.350       .  S
C38         C663   1.404       .  A
C39          C40   1.414       .  A
C39         C662   1.404   1_455  A
C39          F46   1.357       .  S
C40         C665   1.429   1_455  A
C40          F45   1.346       .  S
C41          C42   1.407       .  A
C41         C664   1.429       .  A
C42          F43   1.358       .  S
C47          C48   1.423       .  A
C47          C52   1.395       .  A
C47          F54   1.355       .  S
C48         C660   1.592   1_455  S
C48          C49   1.419       .  A
C49          C50   1.396       .  A
C49          F56   1.350       .  S
C50          C51   1.422       .  A
C50          F55   1.355       .  S
C51          C52   1.418       .  A
C52          F53   1.352       .  S
C57          C58   1.422       .  A
C57          C62   1.405       .  A
C57          F64   1.344       .  S
C58          C59   1.417       .  A
C59          C60   1.401       .  A
C59          F66   1.354       .  S
C60          C61   1.420       .  A
C60          F65   1.341       .  S
C61          C62   1.418       .  A
C62          F63   1.354       .  S
C67          C68   1.418       .  A
C67          C72   1.411       .  A
C67          F74   1.352       .  S
C68          C69   1.427       .  A
C69          C70   1.409       .  A
C69          F76   1.353       .  S
C70          C71   1.418       .  A
C70          F75   1.351       .  S
C71         C659   1.605   1_455  S
C71          C72   1.427       .  A
C72          F73   1.352       .  S
C77          C78   1.430       .  A
C77          C82   1.392       .  A
C77          F84   1.350       .  S
C78          C79   1.418       .  A
C79          C80   1.394       .  A
C79          F86   1.352       .  S
C80          C81   1.427       .  A
C80          F85   1.350       .  S
C81          C82   1.416       .  A
C82          F83   1.353       .  S
C87          C88   1.428       .  A
C87         C404   1.411       .  A
C87          F94   1.344       .  S
C88          C89   1.407       .  A
C89         C402   1.402       .  A
C89          F96   1.358       .  S
C90          C91   1.431       .  A
C90         C401   1.402   1_545  A
C90          F95   1.349       .  S
C91          C92   1.401       .  A
C92         C399   1.411   1_545  A
C92          F93   1.357       .  S
C97          C98   1.407       .  A
C97         C102   1.394       .  A
C97         F104   1.358       .  S
C98         C723   1.425   1_455  A
C99         C100   1.415       .  A
C99         C722   1.425       .  A
C99         F106   1.346       .  S
C100        C725   1.419       .  A
C100        F105   1.358       .  S
C101        C102   1.431       .  A
C101        C724   1.419   1_455  A
C102        F103   1.347       .  S
C107        C108   1.421       .  A
C107        C112   1.411       .  A
C107        F114   1.347       .  S
C108        C109   1.407       .  A
C109        C110   1.400       .  A
C109        F116   1.353       .  S
C110        C111   1.422       .  A
C110        F115   1.341       .  S
C111        C112   1.416       .  A
C112        F113   1.351       .  S
C117        C118   1.427       .  A
C117        C122   1.395       .  A
C117        F124   1.359       .  S
C118        C642   1.591       .  S
C118        C119   1.417       .  A
C119        C120   1.394       .  A
C119        F126   1.350       .  S
C120        C121   1.418       .  A
C120        F125   1.357       .  S
C121        C122   1.409       .  A
C122        F123   1.361       .  S
C127        C128   1.415       .  A
C127        C132   1.390       .  A
C127        F134   1.357   1_455  S
C128        C129   1.413       .  A
C129        C130   1.385       .  A
C129        F136   1.361       .  S
C130        C131   1.424       .  A
C130        F135   1.359       .  S
C131        C132   1.418       .  A
C132        F133   1.354       .  S
C137        C138   1.416       .  A
C137        C142   1.403       .  A
C137        F144   1.351       .  S
C138        C139   1.415       .  A
C139        C140   1.401       .  A
C139        F146   1.342       .  S
C140        C141   1.415       .  A
C140        F145   1.353       .  S
C141        C641   1.584       .  S
C141        C142   1.415       .  A
C142        F143   1.344       .  S
C147        C148   1.425       .  A
C147        C464   1.406   1_545  A
C147        F154   1.342       .  S
C148        C149   1.406       .  A
C149        C462   1.399   1_545  A
C149        F156   1.359       .  S
C150        C151   1.438       .  A
C150        C461   1.399       .  A
C150        F155   1.343       .  S
C151        C152   1.415       .  A
C152        C459   1.406       .  A
C152        F153   1.358       .  S
O157       Ni165   1.922       .  S
O157        C167   1.283       .  A
O158        C168   1.280       .  A
O159        C169   1.289       .  A
O160       Ni165   1.961       .  S
O160        C170   1.286       .  A
O161        C170   1.282       .  A
O162       Ni166   1.905   1_556  S
O162        C169   1.269       .  A
O163       Ni166   1.937   1_556  S
O163        C168   1.285       .  A
O164        C167   1.275       .  A
C167        C171   1.538       .  S
C168        C190   1.546       .  S
C169        C189   1.565       .  S
C170        C172   1.569       .  S
C171        C287   1.576       .  S
C171        C294   1.591       .  S
C171        C304   1.597       .  S
C172        C264   1.590       .  S
C172        C277   1.574       .  S
C172        C307   1.592       .  S
C173        C186   1.552       .  S
C173        C257   1.587       .  S
C173        C284   1.565       .  S
C173        C921   1.581   1_455  S
C174        C811   1.564       .  S
C174        C254   1.607       .  S
C174        C267   1.602       .  S
C174        C898   1.590   1_455  S
O175       Ni495   1.933       .  S
O175        C185   1.284       .  A
O176       Ni183   1.917   1_545  S
O176        C810   1.274       .  A
O177       Ni495   1.932       .  S
O177        C187   1.287       .  A
O178       Ni183   1.930   1_545  S
O178        C188   1.278       .  A
O179       Ni184   1.946       .  S
O179        C812   1.286   1_455  A
O180       Ni496   1.955       .  S
O180        C811   1.282       .  A
O181       Ni184   1.925       .  S
O181        C186   1.286       .  A
O182       Ni496   1.923       .  S
O182        C809   1.281   1_455  A
Ni183       O487   1.933       .  S
Ni183       O489   1.932       .  S
Ni183      Ni808   2.337   1_565  S
Ni184       O492   1.955   1_545  S
Ni184       O494   1.924   1_545  S
Ni184      Ni807   2.337   1_445  S
C185        O806   1.281       .  A
C185        C192   1.540       .  S
C186        O800   1.274   1_455  A
C187        O804   1.282       .  A
C187        C798   1.564       .  S
C188        O803   1.286       .  A
C188        C191   1.569       .  S
C189        C224   1.603       .  S
C189        C234   1.592       .  S
C189        C247   1.576       .  S
C190        C207   1.591       .  S
C190        C217   1.599       .  S
C190        C244   1.590       .  S
C191        C194   1.578       .  S
C191        C851   1.604       .  S
C191        C237   1.587       .  S
C192        C197   1.589       .  S
C192        C828   1.592       .  S
C192        C214   1.597       .  S
C193        C194   1.428       .  A
C193        C198   1.400       .  A
C193        F200   1.350       .  S
C194        C819   1.406       .  A
C195        C818   1.406   1_455  A
C195        C196   1.415       .  A
C195        F202   1.357       .  S
C196        C821   1.428   1_455  A
C196        F201   1.347       .  S
C197        C820   1.428       .  A
C197        C198   1.407       .  A
C198        F199   1.359       .  S
C203        C204   1.422       .  A
C203        C208   1.395       .  A
C203        F210   1.355       .  S
C204        C816   1.592   1_455  S
C204        C205   1.420       .  A
C205        C206   1.396       .  A
C205        F212   1.350       .  S
C206        C207   1.421       .  A
C206        F211   1.355       .  S
C207        C208   1.417       .  A
C208        F209   1.352       .  S
C213        C214   1.423       .  A
C213        C218   1.409       .  A
C213        F220   1.346       .  S
C214        C215   1.418       .  A
C215        C216   1.400       .  A
C215        F222   1.355       .  S
C216        C217   1.419       .  A
C216        F221   1.342       .  S
C217        C218   1.420       .  A
C218        F219   1.353       .  S
C223        C224   1.419       .  A
C223        C228   1.411       .  A
C223        F230   1.352       .  S
C224        C225   1.427       .  A
C225        C226   1.408       .  A
C225        F232   1.353       .  S
C226        C227   1.417       .  A
C226        F231   1.352       .  S
C227        C815   1.604   1_455  S
C227        C228   1.427       .  A
C228        F229   1.352       .  S
C233        C234   1.429       .  A
C233        C238   1.391       .  A
C233        F240   1.351       .  S
C234        C235   1.419       .  A
C235        C236   1.397       .  A
C235        F242   1.351       .  S
C236        C237   1.427       .  A
C236        F241   1.349       .  S
C237        C238   1.417       .  A
C238        F239   1.352       .  S
C243        C244   1.430       .  A
C243        C560   1.410       .  A
C243        F250   1.344       .  S
C244        C245   1.406       .  A
C245        C558   1.402       .  A
C245        F252   1.358       .  S
C246        C557   1.402   1_545  A
C246        C247   1.430       .  A
C246        F251   1.349       .  S
C247        C248   1.401       .  A
C248        C555   1.410   1_545  A
C248        F249   1.358       .  S
C253        C254   1.410       .  A
C253        C258   1.394       .  A
C253        F260   1.358       .  S
C254        C879   1.422   1_455  A
C255        C878   1.422       .  A
C255        C256   1.416       .  A
C255        F262   1.345       .  S
C256        C881   1.419       .  A
C256        F261   1.357       .  S
C257        C880   1.419   1_455  A
C257        C258   1.430       .  A
C258        F259   1.348       .  S
C263        C264   1.424       .  A
C263        C268   1.412       .  A
C263        F270   1.349       .  S
C264        C265   1.405       .  A
C265        C266   1.398       .  A
C265        F272   1.353       .  S
C266        C267   1.423       .  A
C266        F271   1.339       .  S
C267        C268   1.414       .  A
C268        F269   1.351       .  S
C273        C274   1.428       .  A
C273        C278   1.392       .  A
C273        F280   1.359       .  S
C274        C798   1.590       .  S
C274        C275   1.417       .  A
C275        C276   1.393       .  A
C275        F282   1.348       .  S
C276        C277   1.417       .  A
C276        F281   1.357       .  S
C277        C278   1.407       .  A
C278        F279   1.361       .  S
C283        C284   1.416       .  A
C283        C288   1.389       .  A
C283        F290   1.356   1_455  S
C284        C285   1.414       .  A
C285        C286   1.386       .  A
C285        F292   1.361       .  S
C286        C287   1.425       .  A
C286        F291   1.358       .  S
C287        C288   1.418       .  A
C288        F289   1.355       .  S
C293        C294   1.415       .  A
C293        C298   1.401       .  A
C293        F300   1.352       .  S
C294        C295   1.413       .  A
C295        C296   1.402       .  A
C295        F302   1.340       .  S
C296        C297   1.414       .  A
C296        F301   1.354       .  S
C297        C797   1.581       .  S
C297        C298   1.412       .  A
C298        F299   1.342       .  S
C303        C304   1.425       .  A
C303        C620   1.403   1_545  A
C303        F310   1.343       .  S
C304        C305   1.406       .  A
C305        C618   1.402   1_545  A
C305        F312   1.359       .  S
C306        C617   1.402       .  A
C306        C307   1.439       .  A
C306        F311   1.342       .  S
C307        C308   1.415       .  A
C308        C615   1.403       .  A
C308        F309   1.358       .  S
O313       Ni321   1.922       .  S
O313        C323   1.284       .  A
O314       Ni477   1.922       .  S
O314        C324   1.279       .  A
O315       Ni477   1.961       .  S
O315        C325   1.288       .  A
O316       Ni321   1.961       .  S
O316        C326   1.286       .  A
O317       Ni478   1.919       .  S
O317        C326   1.282       .  A
O318       Ni322   1.904       .  S
O318        C325   1.270       .  A
O319       Ni322   1.938       .  S
O319        C324   1.285       .  A
O320       Ni478   1.921       .  S
O320        C323   1.275       .  A
Ni321       O470   1.924   1_554  S
Ni321       O471   1.964   1_554  S
Ni321      Ni478   2.324       .  S
Ni322       O473   1.918       .  S
Ni322       O476   1.919       .  S
Ni322      Ni477   2.325       .  S
C323        C327   1.538       .  S
C324        C346   1.545       .  S
C325        C345   1.563       .  S
C326        C328   1.570       .  S
C327        C443   1.579       .  S
C327        C450   1.596       .  S
C327        C460   1.598       .  S
C328        C420   1.589       .  S
C328        C433   1.576       .  S
C328        C463   1.591       .  S
C329        C342   1.553       .  S
C329        C413   1.588       .  S
C329        C440   1.565       .  S
C329       C1077   1.584   1_455  S
C330        C967   1.560       .  S
C330        C410   1.605       .  S
C330        C423   1.603       .  S
C330       C1054   1.591   1_455  S
O331        C341   1.284       .  A
O332       Ni339   1.918       .  S
O332        C966   1.273       .  A
O333        C343   1.285       .  A
O334       Ni339   1.921       .  S
O334        C344   1.276       .  A
O335       Ni340   1.947       .  S
O335        C968   1.285   1_455  A
O336        C967   1.283       .  A
O337       Ni340   1.926       .  S
O337        C342   1.288       .  A
O338        C965   1.281       .  A
Ni339      Ni964   2.331       .  S
Ni340      Ni963   2.331   1_455  S
C341        O962   1.281       .  A
C341        C348   1.540       .  S
C342        O956   1.273   1_455  A
C343        O960   1.283       .  A
C343        C954   1.560       .  S
C344        O959   1.285       .  A
C344        C347   1.564       .  S
C345        C380   1.603       .  S
C345        C390   1.589       .  S
C345        C403   1.577       .  S
C346        C363   1.593       .  S
C346        C373   1.597       .  S
C346        C400   1.590       .  S
C347        C350   1.578       .  S
C347       C1007   1.605       .  S
C347        C393   1.585       .  S
C348        C353   1.590       .  S
C348        C984   1.592       .  S
C348        C370   1.596       .  S
C349        C350   1.429       .  A
C349        C354   1.400       .  A
C349        F356   1.350       .  S
C350        C975   1.404       .  A
C351        C974   1.404   1_455  A
C351        C352   1.415       .  A
C351        F358   1.357       .  S
C352        C977   1.429   1_455  A
C352        F357   1.346       .  S
C353        C976   1.429       .  A
C353        C354   1.407       .  A
C354        F355   1.358       .  S
C359        C360   1.423       .  A
C359        C364   1.395       .  A
C359        F366   1.355       .  S
C360        C972   1.592   1_455  S
C360        C361   1.419       .  A
C361        C362   1.396       .  A
C361        F368   1.350       .  S
C362        C363   1.422       .  A
C362        F367   1.355       .  S
C363        C364   1.418       .  A
C364        F365   1.352       .  S
C369        C370   1.422       .  A
C369        C374   1.405       .  A
C369        F376   1.344       .  S
C370        C371   1.417       .  A
C371        C372   1.401       .  A
C371        F378   1.354       .  S
C372        C373   1.420       .  A
C372        F377   1.341       .  S
C373        C374   1.418       .  A
C374        F375   1.354       .  S
C379        C380   1.418       .  A
C379        C384   1.411       .  A
C379        F386   1.352       .  S
C380        C381   1.427       .  A
C381        C382   1.409       .  A
C381        F388   1.353       .  S
C382        C383   1.418       .  A
C382        F387   1.351       .  S
C383        C971   1.605   1_455  S
C383        C384   1.427       .  A
C384        F385   1.352       .  S
C389        C390   1.430       .  A
C389        C394   1.392       .  A
C389        F396   1.350       .  S
C390        C391   1.418       .  A
C391        C392   1.394       .  A
C391        F398   1.352       .  S
C392        C393   1.427       .  A
C392        F397   1.350       .  S
C393        C394   1.416       .  A
C394        F395   1.353       .  S
C399        C400   1.429       .  A
C399        F406   1.344       .  S
C400        C401   1.407       .  A
C401        F408   1.358       .  S
C402        C403   1.431       .  A
C402        F407   1.349       .  S
C403        C404   1.401       .  A
C404        F405   1.357       .  S
C409        C410   1.407       .  A
C409        C414   1.394       .  A
C409        F416   1.358       .  S
C410       C1035   1.425   1_455  A
C411       C1034   1.425       .  A
C411        C412   1.415       .  A
C411        F418   1.346       .  S
C412       C1037   1.419       .  A
C412        F417   1.358       .  S
C413       C1036   1.419   1_455  A
C413        C414   1.431       .  A
C414        F415   1.347       .  S
C419        C420   1.421       .  A
C419        C424   1.411       .  A
C419        F426   1.347       .  S
C420        C421   1.407       .  A
C421        C422   1.400       .  A
C421        F428   1.353       .  S
C422        C423   1.422       .  A
C422        F427   1.341       .  S
C423        C424   1.416       .  A
C424        F425   1.351       .  S
C429        C430   1.427       .  A
C429        C434   1.395       .  A
C429        F436   1.359       .  S
C430        C954   1.591       .  S
C430        C431   1.417       .  A
C431        C432   1.394       .  A
C431        F438   1.350       .  S
C432        C433   1.418       .  A
C432        F437   1.357       .  S
C433        C434   1.409       .  A
C434        F435   1.361       .  S
C439        C440   1.415       .  A
C439        C444   1.390       .  A
C439        F446   1.357   1_455  S
C440        C441   1.413       .  A
C441        C442   1.385       .  A
C441        F448   1.361       .  S
C442        C443   1.424       .  A
C442        F447   1.359       .  S
C443        C444   1.418       .  A
C444        F445   1.354       .  S
C449        C450   1.416       .  A
C449        C454   1.403       .  A
C449        F456   1.351       .  S
C450        C451   1.415       .  A
C451        C452   1.401       .  A
C451        F458   1.342       .  S
C452        C453   1.415       .  A
C452        F457   1.353       .  S
C453        C953   1.584       .  S
C453        C454   1.415       .  A
C454        F455   1.344       .  S
C459        C460   1.425       .  A
C459        F466   1.342       .  S
C460        C461   1.406       .  A
C461        F468   1.359       .  S
C462        C463   1.438       .  A
C462        F467   1.343       .  S
C463        C464   1.415       .  A
C464        F465   1.358       .  S
O469       Ni477   1.922       .  S
O469        C479   1.283       .  A
O470        C480   1.280       .  A
O471        C481   1.289       .  A
O472       Ni477   1.961       .  S
O472        C482   1.286       .  A
O473        C482   1.282       .  A
O474       Ni478   1.905   1_556  S
O474        C481   1.269       .  A
O475       Ni478   1.937   1_556  S
O475        C480   1.285       .  A
O476        C479   1.275       .  A
C479        C483   1.538       .  S
C480        C502   1.546       .  S
C481        C501   1.565       .  S
C482        C484   1.569       .  S
C483        C599   1.576       .  S
C483        C606   1.591       .  S
C483        C616   1.597       .  S
C484        C576   1.590       .  S
C484        C589   1.574       .  S
C484        C619   1.592       .  S
C485        C498   1.553       .  S
C485        C569   1.587       .  S
C485        C596   1.565       .  S
C485       C1233   1.581   1_455  S
C486       C1123   1.564       .  S
C486        C566   1.607       .  S
C486        C579   1.602       .  S
C486       C1210   1.590   1_455  S
O487        C497   1.284       .  A
O488       Ni495   1.917       .  S
O488       C1122   1.274       .  A
O489        C499   1.287       .  A
O490       Ni495   1.930       .  S
O490        C500   1.278       .  A
O491       Ni496   1.946       .  S
O491       C1124   1.286   1_455  A
O492       C1123   1.282       .  A
O493       Ni496   1.925       .  S
O493        C498   1.286       .  A
O494       C1121   1.281   1_455  A
Ni495     Ni1120   2.337       .  S
Ni496     Ni1119   2.338   1_455  S
C497       O1118   1.281       .  A
C497        C504   1.540       .  S
C498       O1112   1.274   1_455  A
C499       O1116   1.282       .  A
C499       C1110   1.564       .  S
C500       O1115   1.286       .  A
C500        C503   1.569       .  S
C501        C536   1.603       .  S
C501        C546   1.592       .  S
C501        C559   1.576       .  S
C502        C519   1.591       .  S
C502        C529   1.599       .  S
C502        C556   1.590       .  S
C503        C506   1.578       .  S
C503       C1163   1.604       .  S
C503        C549   1.587       .  S
C504        C509   1.589       .  S
C504       C1140   1.592       .  S
C504        C526   1.597       .  S
C505        C506   1.428       .  A
C505        C510   1.400       .  A
C505        F512   1.350       .  S
C506       C1131   1.406       .  A
C507       C1130   1.406   1_455  A
C507        C508   1.415       .  A
C507        F514   1.357       .  S
C508       C1133   1.428   1_455  A
C508        F513   1.347       .  S
C509       C1132   1.428       .  A
C509        C510   1.407       .  A
C510        F511   1.359       .  S
C515        C516   1.422       .  A
C515        C520   1.395       .  A
C515        F522   1.355       .  S
C516       C1128   1.592   1_455  S
C516        C517   1.420       .  A
C517        C518   1.396       .  A
C517        F524   1.350       .  S
C518        C519   1.421       .  A
C518        F523   1.355       .  S
C519        C520   1.417       .  A
C520        F521   1.352       .  S
C525        C526   1.423       .  A
C525        C530   1.409       .  A
C525        F532   1.346       .  S
C526        C527   1.418       .  A
C527        C528   1.400       .  A
C527        F534   1.355       .  S
C528        C529   1.419       .  A
C528        F533   1.342       .  S
C529        C530   1.420       .  A
C530        F531   1.353       .  S
C535        C536   1.419       .  A
C535        C540   1.411       .  A
C535        F542   1.352       .  S
C536        C537   1.427       .  A
C537        C538   1.408       .  A
C537        F544   1.353       .  S
C538        C539   1.417       .  A
C538        F543   1.352       .  S
C539       C1127   1.604   1_455  S
C539        C540   1.427       .  A
C540        F541   1.352       .  S
C545        C546   1.429       .  A
C545        C550   1.391       .  A
C545        F552   1.351       .  S
C546        C547   1.419       .  A
C547        C548   1.397       .  A
C547        F554   1.351       .  S
C548        C549   1.427       .  A
C548        F553   1.349       .  S
C549        C550   1.417       .  A
C550        F551   1.352       .  S
C555        C556   1.430       .  A
C555        F562   1.344       .  S
C556        C557   1.406       .  A
C557        F564   1.358       .  S
C558        C559   1.430       .  A
C558        F563   1.349       .  S
C559        C560   1.401       .  A
C560        F561   1.358       .  S
C565        C566   1.410       .  A
C565        C570   1.394       .  A
C565        F572   1.358       .  S
C566       C1191   1.422   1_455  A
C567       C1190   1.422       .  A
C567        C568   1.416       .  A
C567        F574   1.345       .  S
C568       C1193   1.419       .  A
C568        F573   1.357       .  S
C569       C1192   1.419   1_455  A
C569        C570   1.430       .  A
C570        F571   1.348       .  S
C575        C576   1.424       .  A
C575        C580   1.412       .  A
C575        F582   1.349       .  S
C576        C577   1.405       .  A
C577        C578   1.398       .  A
C577        F584   1.353       .  S
C578        C579   1.423       .  A
C578        F583   1.339       .  S
C579        C580   1.415       .  A
C580        F581   1.351       .  S
C585        C586   1.428       .  A
C585        C590   1.392       .  A
C585        F592   1.359       .  S
C586       C1110   1.590       .  S
C586        C587   1.417       .  A
C587        C588   1.393       .  A
C587        F594   1.348       .  S
C588        C589   1.417       .  A
C588        F593   1.357       .  S
C589        C590   1.407       .  A
C590        F591   1.361       .  S
C595        C596   1.416       .  A
C595        C600   1.389       .  A
C595        F602   1.356   1_455  S
C596        C597   1.414       .  A
C597        C598   1.386       .  A
C597        F604   1.361       .  S
C598        C599   1.425       .  A
C598        F603   1.358       .  S
C599        C600   1.418       .  A
C600        F601   1.355       .  S
C605        C606   1.415       .  A
C605        C610   1.401       .  A
C605        F612   1.352       .  S
C606        C607   1.413       .  A
C607        C608   1.402       .  A
C607        F614   1.340       .  S
C608        C609   1.414       .  A
C608        F613   1.354       .  S
C609       C1109   1.581       .  S
C609        C610   1.412       .  A
C610        F611   1.342       .  S
C615        C616   1.425       .  A
C615        F622   1.343       .  S
C616        C617   1.406       .  A
C617        F624   1.359       .  S
C618        C619   1.439       .  A
C618        F623   1.342       .  S
C619        C620   1.415       .  A
C620        F621   1.358       .  S
O625       Ni633   1.922       .  S
O625        C635   1.284       .  A
O626       Ni789   1.922       .  S
O626        C636   1.279       .  A
O627       Ni789   1.961       .  S
O627        C637   1.288       .  A
O628       Ni633   1.961       .  S
O628        C638   1.286       .  A
O629       Ni790   1.919       .  S
O629        C638   1.282       .  A
O630       Ni634   1.904       .  S
O630        C637   1.270       .  A
O631       Ni634   1.938       .  S
O631        C636   1.285       .  A
O632       Ni790   1.921       .  S
O632        C635   1.275       .  A
Ni633       O782   1.924   1_554  S
Ni633       O783   1.963   1_554  S
Ni633      Ni790   2.324       .  S
Ni634       O785   1.918       .  S
Ni634       O788   1.919       .  S
Ni634      Ni789   2.325       .  S
C635        C639   1.538       .  S
C636        C658   1.545       .  S
C637        C657   1.563       .  S
C638        C640   1.570       .  S
C639        C755   1.579       .  S
C639        C762   1.596       .  S
C639        C772   1.598       .  S
C640        C732   1.589       .  S
C640        C745   1.576       .  S
C640        C775   1.591       .  S
C641        C654   1.553       .  S
C641        C725   1.588       .  S
C641        C752   1.565       .  S
C642        C722   1.605       .  S
C642        C735   1.603       .  S
O643       Ni963   1.933       .  S
O643        C653   1.284   1_655  A
O644       Ni651   1.918   1_545  S
O645       Ni963   1.929       .  S
O645        C655   1.285   1_655  A
O646       Ni651   1.921   1_545  S
O646        C656   1.276       .  A
O647       Ni652   1.947       .  S
O648       Ni964   1.953       .  S
O649       Ni652   1.926       .  S
O649        C654   1.288       .  A
O650       Ni964   1.925       .  S
Ni651       O955   1.933       .  S
Ni651       O957   1.929       .  S
Ni652       O960   1.953   1_545  S
Ni652       O962   1.925   1_545  S
C653        C660   1.540   1_455  S
C656        C659   1.564       .  S
C657        C692   1.603       .  S
C657        C702   1.589       .  S
C657        C715   1.577       .  S
C658        C675   1.593       .  S
C658        C685   1.597       .  S
C658        C712   1.590       .  S
C659        C662   1.578       .  S
C659        C705   1.585       .  S
C660        C665   1.590       .  S
C660        C682   1.596       .  S
C661        C662   1.429       .  A
C661        C666   1.400       .  A
C661        F668   1.350       .  S
C663        C664   1.414       .  A
C663        F670   1.357       .  S
C664        F669   1.346       .  S
C665        C666   1.407       .  A
C666        F667   1.358       .  S
C671        C672   1.423       .  A
C671        C676   1.395       .  A
C671        F678   1.355       .  S
C672        C673   1.419       .  A
C673        C674   1.396       .  A
C673        F680   1.350       .  S
C674        C675   1.422       .  A
C674        F679   1.355       .  S
C675        C676   1.418       .  A
C676        F677   1.352       .  S
C681        C682   1.422       .  A
C681        C686   1.405       .  A
C681        F688   1.344       .  S
C682        C683   1.417       .  A
C683        C684   1.401       .  A
C683        F690   1.354       .  S
C684        C685   1.420       .  A
C684        F689   1.341       .  S
C685        C686   1.418       .  A
C686        F687   1.354       .  S
C691        C692   1.418       .  A
C691        C696   1.411       .  A
C691        F698   1.352       .  S
C692        C693   1.427       .  A
C693        C694   1.409       .  A
C693        F700   1.353       .  S
C694        C695   1.418       .  A
C694        F699   1.351       .  S
C695        C696   1.427       .  A
C696        F697   1.352       .  S
C701        C702   1.430       .  A
C701        C706   1.392       .  A
C701        F708   1.350       .  S
C702        C703   1.418       .  A
C703        C704   1.394       .  A
C703        F710   1.352       .  S
C704        C705   1.427       .  A
C704        F709   1.350       .  S
C705        C706   1.416       .  A
C706        F707   1.353       .  S
C711        C712   1.429       .  A
C711       C1028   1.411       .  A
C711        F718   1.344       .  S
C712        C713   1.407       .  A
C713       C1026   1.402       .  A
C713        F720   1.358       .  S
C714       C1025   1.402   1_545  A
C714        C715   1.431       .  A
C714        F719   1.349       .  S
C715        C716   1.401       .  A
C716       C1023   1.411   1_545  A
C716        F717   1.357       .  S
C721        C722   1.407       .  A
C721        C726   1.394       .  A
C721        F728   1.358       .  S
C723        C724   1.415       .  A
C723        F730   1.346       .  S
C724        F729   1.358       .  S
C725        C726   1.431       .  A
C726        F727   1.347       .  S
C731        C732   1.421       .  A
C731        C736   1.411       .  A
C731        F738   1.347       .  S
C732        C733   1.407       .  A
C733        C734   1.400       .  A
C733        F740   1.353       .  S
C734        C735   1.422       .  A
C734        F739   1.341       .  S
C735        C736   1.416       .  A
C736        F737   1.351       .  S
C741        C742   1.427       .  A
C741        C746   1.395       .  A
C741        F748   1.359   1_655  S
C742        C743   1.417       .  A
C743        C744   1.394       .  A
C743        F750   1.350       .  S
C744        C745   1.418       .  A
C744        F749   1.357       .  S
C745        C746   1.409       .  A
C746        F747   1.361       .  S
C751        C752   1.415       .  A
C751        C756   1.390       .  A
C751        F758   1.357       .  S
C752        C753   1.413       .  A
C753        C754   1.385       .  A
C753        F760   1.361       .  S
C754        C755   1.424       .  A
C754        F759   1.359       .  S
C755        C756   1.418       .  A
C756        F757   1.354       .  S
C761        C762   1.416       .  A
C761        C766   1.403       .  A
C761        F768   1.351       .  S
C762        C763   1.415       .  A
C763        C764   1.401       .  A
C763        F770   1.342       .  S
C764        C765   1.415       .  A
C764        F769   1.353       .  S
C765        C766   1.415       .  A
C766        F767   1.344       .  S
C771        C772   1.425       .  A
C771       C1088   1.406   1_545  A
C771        F778   1.342       .  S
C772        C773   1.406       .  A
C773       C1086   1.399   1_545  A
C773        F780   1.359       .  S
C774       C1085   1.399       .  A
C774        C775   1.438       .  A
C774        F779   1.343       .  S
C775        C776   1.415       .  A
C776       C1083   1.406       .  A
C776        F777   1.358       .  S
O781       Ni789   1.922       .  S
O781        C791   1.283       .  A
O782        C792   1.280       .  A
O783        C793   1.289       .  A
O784       Ni789   1.961       .  S
O784        C794   1.286       .  A
O785        C794   1.282       .  A
O786       Ni790   1.905   1_556  S
O786        C793   1.269       .  A
O787       Ni790   1.937   1_556  S
O787        C792   1.285       .  A
O788        C791   1.275       .  A
C791        C795   1.538       .  S
C792        C814   1.545       .  S
C793        C813   1.565       .  S
C794        C796   1.569       .  S
C795        C911   1.576       .  S
C795        C918   1.591       .  S
C795        C928   1.597       .  S
C796        C888   1.590       .  S
C796        C901   1.574       .  S
C796        C931   1.592       .  S
C797        C810   1.553       .  S
C797        C881   1.587       .  S
C797        C908   1.565       .  S
C798        C878   1.607       .  S
C798        C891   1.602       .  S
O799      Ni1119   1.933       .  S
O799        C809   1.284       .  A
O800       Ni807   1.917   1_545  S
O801      Ni1119   1.932       .  S
O801        C811   1.287   1_655  A
O802       Ni807   1.930   1_545  S
O802        C812   1.278       .  A
O803       Ni808   1.946       .  S
O804      Ni1120   1.955       .  S
O805       Ni808   1.925       .  S
O805        C810   1.286       .  A
O806      Ni1120   1.923       .  S
Ni807      O1111   1.933       .  S
Ni807      O1113   1.932       .  S
Ni808      O1116   1.955   1_545  S
Ni808      O1118   1.924   1_545  S
C809        C816   1.540       .  S
C812        C815   1.569       .  S
C813        C848   1.603       .  S
C813        C858   1.592       .  S
C813        C871   1.576       .  S
C814        C831   1.591       .  S
C814        C841   1.599       .  S
C814        C868   1.590       .  S
C815        C818   1.578       .  S
C815        C861   1.587       .  S
C816        C821   1.589       .  S
C816        C838   1.597       .  S
C817        C818   1.428       .  A
C817        C822   1.400       .  A
C817        F824   1.350       .  S
C819        C820   1.415       .  A
C819        F826   1.357       .  S
C820        F825   1.347       .  S
C821        C822   1.407       .  A
C822        F823   1.359       .  S
C827        C828   1.422       .  A
C827        C832   1.395       .  A
C827        F834   1.355       .  S
C828        C829   1.420       .  A
C829        C830   1.396       .  A
C829        F836   1.350       .  S
C830        C831   1.421       .  A
C830        F835   1.355       .  S
C831        C832   1.417       .  A
C832        F833   1.352       .  S
C837        C838   1.423       .  A
C837        C842   1.409       .  A
C837        F844   1.346       .  S
C838        C839   1.418       .  A
C839        C840   1.400       .  A
C839        F846   1.355       .  S
C840        C841   1.419       .  A
C840        F845   1.342       .  S
C841        C842   1.420       .  A
C842        F843   1.353       .  S
C847        C848   1.419       .  A
C847        C852   1.411       .  A
C847        F854   1.352       .  S
C848        C849   1.427       .  A
C849        C850   1.408       .  A
C849        F856   1.353       .  S
C850        C851   1.417       .  A
C850        F855   1.352       .  S
C851        C852   1.427       .  A
C852        F853   1.352       .  S
C857        C858   1.429       .  A
C857        C862   1.391       .  A
C857        F864   1.351       .  S
C858        C859   1.419       .  A
C859        C860   1.397       .  A
C859        F866   1.351       .  S
C860        C861   1.427       .  A
C860        F865   1.349       .  S
C861        C862   1.417       .  A
C862        F863   1.352       .  S
C867        C868   1.430       .  A
C867       C1184   1.410       .  A
C867        F874   1.344       .  S
C868        C869   1.406       .  A
C869       C1182   1.402       .  A
C869        F876   1.358       .  S
C870       C1181   1.402   1_545  A
C870        C871   1.430       .  A
C870        F875   1.349       .  S
C871        C872   1.401       .  A
C872       C1179   1.410   1_545  A
C872        F873   1.358       .  S
C877        C878   1.410       .  A
C877        C882   1.394       .  A
C877        F884   1.358       .  S
C879        C880   1.416       .  A
C879        F886   1.345       .  S
C880        F885   1.357       .  S
C881        C882   1.430       .  A
C882        F883   1.348       .  S
C887        C888   1.425       .  A
C887        C892   1.412       .  A
C887        F894   1.349       .  S
C888        C889   1.405       .  A
C889        C890   1.398       .  A
C889        F896   1.353       .  S
C890        C891   1.423       .  A
C890        F895   1.339       .  S
C891        C892   1.414       .  A
C892        F893   1.351       .  S
C897        C898   1.428       .  A
C897        C902   1.392       .  A
C897        F904   1.359   1_655  S
C898        C899   1.417       .  A
C899        C900   1.393       .  A
C899        F906   1.348       .  S
C900        C901   1.417       .  A
C900        F905   1.357       .  S
C901        C902   1.407       .  A
C902        F903   1.361       .  S
C907        C908   1.416       .  A
C907        C912   1.389       .  A
C907        F914   1.356       .  S
C908        C909   1.414       .  A
C909        C910   1.386       .  A
C909        F916   1.361       .  S
C910        C911   1.425       .  A
C910        F915   1.358       .  S
C911        C912   1.418       .  A
C912        F913   1.355       .  S
C917        C918   1.415       .  A
C917        C922   1.401       .  A
C917        F924   1.352       .  S
C918        C919   1.413       .  A
C919        C920   1.402       .  A
C919        F926   1.340       .  S
C920        C921   1.414       .  A
C920        F925   1.354       .  S
C921        C922   1.412       .  A
C922        F923   1.342       .  S
C927        C928   1.425       .  A
C927       C1244   1.403   1_545  A
C927        F934   1.343       .  S
C928        C929   1.406       .  A
C929       C1242   1.402   1_545  A
C929        F936   1.359       .  S
C930       C1241   1.402       .  A
C930        C931   1.439       .  A
C930        F935   1.342       .  S
C931        C932   1.415       .  A
C932       C1239   1.403       .  A
C932        F933   1.358       .  S
O937       Ni945   1.922       .  S
O937        C947   1.284       .  A
O938      Ni1101   1.922       .  S
O938        C948   1.279       .  A
O939      Ni1101   1.961       .  S
O939        C949   1.288       .  A
O940       Ni945   1.961       .  S
O940        C950   1.286       .  A
O941      Ni1102   1.919       .  S
O941        C950   1.282       .  A
O942       Ni946   1.904       .  S
O942        C949   1.270       .  A
O943       Ni946   1.938       .  S
O943        C948   1.285       .  A
O944      Ni1102   1.921       .  S
O944        C947   1.275       .  A
Ni945      O1094   1.924   1_554  S
Ni945      O1095   1.963   1_554  S
Ni945     Ni1102   2.324       .  S
Ni946      O1097   1.918       .  S
Ni946      O1100   1.919       .  S
Ni946     Ni1101   2.325       .  S
C947        C951   1.538       .  S
C948        C970   1.545       .  S
C949        C969   1.563       .  S
C950        C952   1.570       .  S
C951       C1067   1.579       .  S
C951       C1074   1.596       .  S
C951       C1084   1.598       .  S
C952       C1044   1.589       .  S
C952       C1057   1.576       .  S
C952       C1087   1.591       .  S
C953        C966   1.553       .  S
C953       C1037   1.588       .  S
C953       C1064   1.564       .  S
C954       C1034   1.605       .  S
C954       C1047   1.603       .  S
O955        C965   1.284   1_655  A
O956       Ni963   1.918       .  S
O957        C967   1.285   1_655  A
O958       Ni963   1.921       .  S
O958        C968   1.276       .  A
O959       Ni964   1.947       .  S
O961       Ni964   1.926       .  S
O961        C966   1.288       .  A
C965        C972   1.540   1_455  S
C968        C971   1.564       .  S
C969       C1004   1.603       .  S
C969       C1014   1.589       .  S
C969       C1027   1.577       .  S
C970        C987   1.593       .  S
C970        C997   1.597       .  S
C970       C1024   1.590       .  S
C971        C974   1.578       .  S
C971       C1017   1.585       .  S
C972        C977   1.590       .  S
C972        C994   1.596       .  S
C973        C974   1.429       .  A
C973        C978   1.400       .  A
C973        F980   1.350       .  S
C975        C976   1.415       .  A
C975        F982   1.357       .  S
C976        F981   1.346       .  S
C977        C978   1.407       .  A
C978        F979   1.358       .  S
C983        C984   1.423       .  A
C983        C988   1.395       .  A
C983        F990   1.355       .  S
C984        C985   1.419       .  A
C985        C986   1.396       .  A
C985        F992   1.350       .  S
C986        C987   1.422       .  A
C986        F991   1.355       .  S
C987        C988   1.418       .  A
C988        F989   1.352       .  S
C993        C994   1.422       .  A
C993        C998   1.405       .  A
C993       F1000   1.344       .  S
C994        C995   1.417       .  A
C995        C996   1.401       .  A
C995       F1002   1.354       .  S
C996        C997   1.420       .  A
C996       F1001   1.341       .  S
C997        C998   1.418       .  A
C998        F999   1.354       .  S
C1003      C1004   1.418       .  A
C1003      C1008   1.411       .  A
C1003      F1010   1.352       .  S
C1004      C1005   1.427       .  A
C1005      C1006   1.409       .  A
C1005      F1012   1.353       .  S
C1006      C1007   1.418       .  A
C1006      F1011   1.351       .  S
C1007      C1008   1.427       .  A
C1008      F1009   1.352       .  S
C1013      C1014   1.430       .  A
C1013      C1018   1.392       .  A
C1013      F1020   1.350       .  S
C1014      C1015   1.418       .  A
C1015      C1016   1.394       .  A
C1015      F1022   1.352       .  S
C1016      C1017   1.428       .  A
C1016      F1021   1.350       .  S
C1017      C1018   1.416       .  A
C1018      F1019   1.353       .  S
C1023      C1024   1.429       .  A
C1023      F1030   1.344       .  S
C1024      C1025   1.407       .  A
C1025      F1032   1.358       .  S
C1026      C1027   1.431       .  A
C1026      F1031   1.349       .  S
C1027      C1028   1.401       .  A
C1028      F1029   1.357       .  S
C1033      C1034   1.407       .  A
C1033      C1038   1.394       .  A
C1033      F1040   1.358       .  S
C1035      C1036   1.415       .  A
C1035      F1042   1.346       .  S
C1036      F1041   1.358       .  S
C1037      C1038   1.431       .  A
C1038      F1039   1.347       .  S
C1043      C1044   1.421       .  A
C1043      C1048   1.411       .  A
C1043      F1050   1.347       .  S
C1044      C1045   1.407       .  A
C1045      C1046   1.400       .  A
C1045      F1052   1.353       .  S
C1046      C1047   1.422       .  A
C1046      F1051   1.341       .  S
C1047      C1048   1.416       .  A
C1048      F1049   1.351       .  S
C1053      C1054   1.427       .  A
C1053      C1058   1.395       .  A
C1053      F1060   1.359   1_655  S
C1054      C1055   1.417       .  A
C1055      C1056   1.394       .  A
C1055      F1062   1.350       .  S
C1056      C1057   1.418       .  A
C1056      F1061   1.357       .  S
C1057      C1058   1.409       .  A
C1058      F1059   1.361       .  S
C1063      C1064   1.415       .  A
C1063      C1068   1.390       .  A
C1063      F1070   1.357       .  S
C1064      C1065   1.413       .  A
C1065      C1066   1.385       .  A
C1065      F1072   1.361       .  S
C1066      C1067   1.424       .  A
C1066      F1071   1.359       .  S
C1067      C1068   1.418       .  A
C1068      F1069   1.354       .  S
C1073      C1074   1.416       .  A
C1073      C1078   1.403       .  A
C1073      F1080   1.351       .  S
C1074      C1075   1.415       .  A
C1075      C1076   1.401       .  A
C1075      F1082   1.342       .  S
C1076      C1077   1.415       .  A
C1076      F1081   1.353       .  S
C1077      C1078   1.415       .  A
C1078      F1079   1.344       .  S
C1083      C1084   1.425       .  A
C1083      F1090   1.342       .  S
C1084      C1085   1.406       .  A
C1085      F1092   1.359       .  S
C1086      C1087   1.438       .  A
C1086      F1091   1.343       .  S
C1087      C1088   1.415       .  A
C1088      F1089   1.358       .  S
O1093     Ni1101   1.922       .  S
O1093      C1103   1.283       .  A
O1094      C1104   1.280       .  A
O1095      C1105   1.289       .  A
O1096     Ni1101   1.962       .  S
O1096      C1106   1.286       .  A
O1097      C1106   1.282       .  A
O1098     Ni1102   1.905   1_556  S
O1098      C1105   1.270       .  A
O1099     Ni1102   1.937   1_556  S
O1099      C1104   1.285       .  A
O1100      C1103   1.276       .  A
C1103      C1107   1.538       .  S
C1104      C1126   1.545       .  S
C1105      C1125   1.565       .  S
C1106      C1108   1.569       .  S
C1107      C1223   1.576       .  S
C1107      C1230   1.591       .  S
C1107      C1240   1.597       .  S
C1108      C1200   1.590       .  S
C1108      C1213   1.574       .  S
C1108      C1243   1.592       .  S
C1109      C1122   1.553       .  S
C1109      C1193   1.587       .  S
C1109      C1220   1.565       .  S
C1110      C1190   1.607       .  S
C1110      C1203   1.602       .  S
O1111      C1121   1.284       .  A
O1112     Ni1119   1.917       .  S
O1113      C1123   1.287   1_655  A
O1114     Ni1119   1.930       .  S
O1114      C1124   1.278       .  A
O1115     Ni1120   1.946       .  S
O1117     Ni1120   1.925       .  S
O1117      C1122   1.286       .  A
C1121      C1128   1.540       .  S
C1124      C1127   1.569       .  S
C1125      C1160   1.603       .  S
C1125      C1170   1.592       .  S
C1125      C1183   1.576       .  S
C1126      C1143   1.591       .  S
C1126      C1153   1.599       .  S
C1126      C1180   1.590       .  S
C1127      C1130   1.578       .  S
C1127      C1173   1.587       .  S
C1128      C1133   1.589       .  S
C1128      C1150   1.597       .  S
C1129      C1130   1.428       .  A
C1129      C1134   1.400       .  A
C1129      F1136   1.350       .  S
C1131      C1132   1.415       .  A
C1131      F1138   1.357       .  S
C1132      F1137   1.347       .  S
C1133      C1134   1.407       .  A
C1134      F1135   1.359       .  S
C1139      C1140   1.422       .  A
C1139      C1144   1.395       .  A
C1139      F1146   1.355       .  S
C1140      C1141   1.420       .  A
C1141      C1142   1.396       .  A
C1141      F1148   1.350       .  S
C1142      C1143   1.421       .  A
C1142      F1147   1.355       .  S
C1143      C1144   1.417       .  A
C1144      F1145   1.352       .  S
C1149      C1150   1.423       .  A
C1149      C1154   1.409       .  A
C1149      F1156   1.346       .  S
C1150      C1151   1.418       .  A
C1151      C1152   1.400       .  A
C1151      F1158   1.355       .  S
C1152      C1153   1.419       .  A
C1152      F1157   1.342       .  S
C1153      C1154   1.420       .  A
C1154      F1155   1.353       .  S
C1159      C1160   1.419       .  A
C1159      C1164   1.411       .  A
C1159      F1166   1.352       .  S
C1160      C1161   1.427       .  A
C1161      C1162   1.408       .  A
C1161      F1168   1.353       .  S
C1162      C1163   1.417       .  A
C1162      F1167   1.352       .  S
C1163      C1164   1.427       .  A
C1164      F1165   1.352       .  S
C1169      C1170   1.429       .  A
C1169      C1174   1.391       .  A
C1169      F1176   1.351       .  S
C1170      C1171   1.419       .  A
C1171      C1172   1.397       .  A
C1171      F1178   1.351       .  S
C1172      C1173   1.427       .  A
C1172      F1177   1.349       .  S
C1173      C1174   1.417       .  A
C1174      F1175   1.352       .  S
C1179      C1180   1.430       .  A
C1179      F1186   1.344       .  S
C1180      C1181   1.406       .  A
C1181      F1188   1.358       .  S
C1182      C1183   1.430       .  A
C1182      F1187   1.349       .  S
C1183      C1184   1.401       .  A
C1184      F1185   1.358       .  S
C1189      C1190   1.410       .  A
C1189      C1194   1.394       .  A
C1189      F1196   1.358       .  S
C1191      C1192   1.416       .  A
C1191      F1198   1.345       .  S
C1192      F1197   1.357       .  S
C1193      C1194   1.430       .  A
C1194      F1195   1.348       .  S
C1199      C1200   1.424       .  A
C1199      C1204   1.412       .  A
C1199      F1206   1.349       .  S
C1200      C1201   1.405       .  A
C1201      C1202   1.398       .  A
C1201      F1208   1.353       .  S
C1202      C1203   1.423       .  A
C1202      F1207   1.339       .  S
C1203      C1204   1.415       .  A
C1204      F1205   1.351       .  S
C1209      C1210   1.428       .  A
C1209      C1214   1.392       .  A
C1209      F1216   1.359   1_655  S
C1210      C1211   1.417       .  A
C1211      C1212   1.393       .  A
C1211      F1218   1.348       .  S
C1212      C1213   1.417       .  A
C1212      F1217   1.357       .  S
C1213      C1214   1.407       .  A
C1214      F1215   1.361       .  S
C1219      C1220   1.416       .  A
C1219      C1224   1.389       .  A
C1219      F1226   1.356       .  S
C1220      C1221   1.414       .  A
C1221      C1222   1.386       .  A
C1221      F1228   1.361       .  S
C1222      C1223   1.425       .  A
C1222      F1227   1.358       .  S
C1223      C1224   1.418       .  A
C1224      F1225   1.355       .  S
C1229      C1230   1.415       .  A
C1229      C1234   1.401       .  A
C1229      F1236   1.352       .  S
C1230      C1231   1.413       .  A
C1231      C1232   1.402       .  A
C1231      F1238   1.340       .  S
C1232      C1233   1.414       .  A
C1232      F1237   1.354       .  S
C1233      C1234   1.412       .  A
C1234      F1235   1.342       .  S
C1239      C1240   1.425       .  A
C1239      F1246   1.343       .  S
C1240      C1241   1.406       .  A
C1241      F1248   1.359       .  S
C1242      C1243   1.439       .  A
C1242      F1247   1.342       .  S
C1243      C1244   1.415       .  A
C1244      F1245   1.358       .  S
