geometry optimzed in LAMMPS
_audit_creation_date              2020-12-01 
_audit_creation_method            'lammps2cif' 
_symmetry_space_group_name_H-M    'P1' 
_symmetry_Int_Tables_number       1 
_symmetry_cell_setting            triclinic 
loop_ 
_symmetry_equiv_pos_as_xyz 
  x,y,z 
_cell_length_a                    34.99331729 
_cell_length_b                    34.99104436132777 
_cell_length_c                    36.90765264959819 
_cell_angle_alpha                 89.99364359664041 
_cell_angle_beta                  89.99640954142828 
_cell_angle_gamma                 90.00145791219393 
loop_ 
_atom_site_label 
_atom_site_type_symbol 
_atom_site_fract_x 
_atom_site_fract_y 
_atom_site_fract_z 
_atom_site_charge 
C1          C  0.16594101  0.17210458  0.16731741     0.42500
N2          N  0.20229441  0.18359466  0.21290471     0.01400
C3          C  0.20458818  0.34579003  0.31955828    -0.06500
H4          H  0.22255607  0.36913701  0.17883419     0.06800
C5          C  0.34404051  0.29370775  0.18602046    -0.06900
Co6        Co  0.17842058  0.25378154  0.25296154     0.74200
N7          N  0.20968420  0.32084753  0.21298107    -0.26100
Co8        Co  0.25200332  0.31988392  0.25257654     0.74100
C9          C  0.33060669  0.32802078  0.16739266     0.42600
N10         N  0.31506439  0.20420165  0.21314569     0.01000
N11         N  0.29424008  0.31649412  0.21295829     0.01100
N12         N  0.15707919  0.30215410  0.31911995    -0.46900
H13         H  0.12797027  0.22417382  0.18016767     0.06800
N14         N  0.18147476  0.29588044  0.21314557     0.01400
N15         N  0.29408134  0.31680800  0.29241315     0.01100
C16         C  0.32973170  0.32828677  0.33851970     0.42700
N17         N  0.28684673  0.17924321  0.21296928    -0.25500
C18         C  0.15343770  0.20640252  0.32035662    -0.06400
N19         N  0.19612909  0.15888305  0.18637782    -0.46600
N20         N  0.30005413  0.34169251  0.31884050    -0.46800
C21         C  0.16672298  0.17173075  0.33845014     0.42500
N22         N  0.18180780  0.29599831  0.29260386     0.01300
N23         N  0.28676294  0.17877573  0.29212965    -0.25500
N24         N  0.17703027  0.21152543  0.21337230    -0.26000
N25         N  0.31468843  0.20404604  0.29260137     0.01000
H26         H  0.27412258  0.12970087  0.32533013     0.06900
H27         H  0.36727430  0.27566281  0.32676286     0.06900
N28         N  0.20972922  0.32127321  0.29214792    -0.26100
N29         N  0.31951087  0.28856843  0.21342174    -0.25700
N30         N  0.20241150  0.18323043  0.29236869     0.01400
C31         C  0.16994243  0.33157262  0.16707739     0.42700
C32         C  0.29191479  0.15522215  0.18515055    -0.06900
N33         N  0.31903450  0.28858753  0.29258293    -0.25700
H34         H  0.36859093  0.27595413  0.18022946     0.06900
N35         N  0.15656851  0.30186491  0.18673840    -0.46900
H36         H  0.27395473  0.13098209  0.17880876     0.06900
C37         C  0.32617823  0.16768687  0.33818379     0.42600
C38         C  0.15251450  0.20641138  0.18595778    -0.06400
Co39       Co  0.24451106  0.18018212  0.25254512     0.73800
N40         N  0.33997213  0.19822096  0.18673535    -0.46600
C41         C  0.17027725  0.33234660  0.33818691     0.42800
N42         N  0.19641326  0.15832883  0.31878334    -0.46600
Co43       Co  0.31810272  0.24628381  0.25298359     0.73900
C44         C  0.34304049  0.29362997  0.32041786    -0.06900
C45         C  0.20460737  0.34488418  0.18516898    -0.06500
N46         N  0.17746476  0.21145562  0.29253813    -0.26000
N47         N  0.30040807  0.34122422  0.18644431    -0.46800
H48         H  0.22233665  0.37034366  0.32535482     0.06900
C49         C  0.29187958  0.15425171  0.31954065    -0.06900
Cl50       Cl  0.24826006  0.25003299  0.25276362    -0.49900
C51         C  0.32658362  0.16852967  0.16706402     0.42600
H52         H  0.12920333  0.22437187  0.32669308     0.06800
N53         N  0.33939738  0.19788104  0.31912830    -0.46600
C54         C  0.35304078  0.35278243  0.36340801     0.86500
C55         C  0.37939088  0.33024498  0.38930383    -0.53700
C56         C  0.40121490  0.35311280  0.41092504     0.09400
C57         C  0.39443965  0.39613883  0.40472007     0.20400
C58         C  0.32922645  0.37908107  0.38827129    -0.54500
C59         C  0.35100492  0.40181326  0.41008968     0.09500
C60         C  0.37977182  0.37960847  0.34225052    -0.54000
C61         C  0.40161544  0.40224700  0.36383688     0.10100
H62         H  0.38098110  0.29927704  0.39025829     0.14600
H63         H  0.41223745  0.41476936  0.42233015     0.00300
H64         H  0.29819913  0.37952965  0.38872621     0.14900
H65         H  0.38124266  0.38063528  0.31286655     0.14700
C66         C  0.35072497  0.14425820  0.36288884     0.86500
C67         C  0.37814620  0.11834649  0.34153974    -0.53700
C68         C  0.40095626  0.09654460  0.36298709     0.09400
C69         C  0.39395637  0.10243683  0.40392163     0.20400
C70         C  0.32811077  0.11722352  0.38803372    -0.54500
C71         C  0.35080883  0.09523695  0.40958914     0.09500
C72         C  0.37653978  0.16779321  0.38848111    -0.54000
C73         C  0.39928016  0.14569638  0.41007925     0.10100
H74         H  0.37921586  0.11714125  0.31214447     0.14600
H75         H  0.41250635  0.08441607  0.42140695     0.00300
H76         H  0.29713326  0.11577729  0.38898335     0.14900
H77         H  0.37702990  0.19881062  0.38923217     0.14700
C78         C  0.14570448  0.35576434  0.36288902     0.86500
C79         C  0.16828399  0.38283430  0.38802404    -0.53700
C80         C  0.14555066  0.40480118  0.40956832     0.09400
C81         C  0.10241950  0.39755834  0.40389768     0.20400
C82         C  0.11991049  0.33221297  0.38850102    -0.54500
C83         C  0.09715165  0.35429490  0.41009713     0.09500
C84         C  0.11826427  0.38164732  0.34152588    -0.54000
C85         C  0.09543654  0.40344591  0.36295706     0.10100
H86         H  0.19925944  0.38430727  0.38898476     0.14600
H87         H  0.08384535  0.41556746  0.42136920     0.00300
H88         H  0.11945474  0.30119554  0.38927082     0.14900
H89         H  0.11720965  0.38285217  0.31212997     0.14700
C90         C  0.14338943  0.14723947  0.36333029     0.86500
C91         C  0.11703571  0.16979102  0.38921139    -0.53700
C92         C  0.09519940  0.14693479  0.41083905     0.09400
C93         C  0.10194453  0.10390605  0.40463637     0.20400
C94         C  0.16717647  0.12093887  0.38821560    -0.54500
C95         C  0.14536844  0.09822519  0.41003335     0.09500
C96         C  0.11666224  0.12041621  0.34216806    -0.54000
C97         C  0.09479711  0.09778234  0.36374909     0.10100
H98         H  0.11546588  0.20075996  0.39016457     0.14600
H99         H  0.08412736  0.08528598  0.42224463     0.00300
H100        H  0.19820320  0.12048045  0.38869085     0.14900
H101        H  0.11521416  0.11938578  0.31278364     0.14700
N102        N  0.49839398  0.44122681  0.35312636    -0.36600
N103        N  0.05621229  0.00040149  0.34841303    -0.57200
N104        N  0.49802278  0.05878876  0.35311869    -0.36600
N105        N  0.44020240  0.99961050  0.34850692    -0.57200
C106        C  0.02940730  0.42069325  0.34347402     0.27000
C107        C  0.46746757  0.42026190  0.34402516     0.27000
C108        C  0.02893740  0.07975310  0.34397015     0.27000
C109        C  0.46699398  0.07931216  0.34348472     0.27000
C110        C  0.07921607  0.46978523  0.34478245     0.35600
C111        C  0.07908461  0.03121203  0.34538924     0.35600
C112        C  0.41732694  0.46880407  0.34551198     0.35600
C113        C  0.41719085  0.03021834  0.34488551     0.35600
C114        C  0.01821427  0.38701295  0.32710767    -0.21900
C115        C  0.47879092  0.38675273  0.32743343    -0.21900
C116        C  0.01759067  0.11325264  0.32736965    -0.21900
C117        C  0.47816594  0.11298440  0.32708148    -0.21900
C118        C  0.11593794  0.48106221  0.33655865    -0.22900
C119        C  0.11585118  0.02031068  0.33694643    -0.22900
C120        C  0.38055096  0.47969808  0.33710474    -0.22900
C121        C  0.38046093  0.01894116  0.33670421    -0.22900
C122        C  0.06747736  0.43179449  0.34891469    -0.18300
C123        C  0.42936566  0.43096529  0.34997366    -0.18300
C124        C  0.42892853  0.06820574  0.34896823    -0.18300
C125        C  0.06704942  0.06905584  0.34987934    -0.18300
H126        H  0.03658663  0.36543728  0.31537352     0.14600
H127        H  0.46049826  0.36496040  0.31595388     0.14300
H128        H  0.03586916  0.13504306  0.31585911     0.14600
H129        H  0.45977937  0.13454943  0.31534786     0.14600
H130        H  0.13967292  0.46276743  0.32947093     0.12900
H131        H  0.13946864  0.03887131  0.33013646     0.12900
H132        H  0.35693423  0.46113408  0.33030930     0.12900
H133        H  0.35672331  0.03723334  0.32961917     0.12900
H134        H  0.49837158  0.46694502  0.36723146     0.26200
H135        H  0.49806734  0.03307734  0.36724110     0.26200
C136        C  0.35399113  0.35255911  0.14263505     0.86500
C137        C  0.33040172  0.37829704  0.11701035    -0.53700
C138        C  0.35244194  0.40104815  0.09536669     0.09400
C139        C  0.39571741  0.39578057  0.10149681     0.20400
C140        C  0.38105080  0.32993712  0.11752666    -0.54500
C141        C  0.40300314  0.35262662  0.09592861     0.09500
C142        C  0.37987596  0.38006124  0.16391721    -0.54000
C143        C  0.40162896  0.40286108  0.14240808     0.10100
H144        H  0.29938489  0.37875277  0.11629415     0.14600
H145        H  0.41369835  0.41432780  0.08396952     0.00300
H146        H  0.38254658  0.29895814  0.11663898     0.14900
H147        H  0.38111504  0.38117836  0.19330934     0.14700
C148        C  0.14544297  0.35485653  0.14216153     0.86500
C149        C  0.11921676  0.33101947  0.11724350    -0.53700
C150        C  0.09649234  0.35278210  0.09539521     0.09400
C151        C  0.10211704  0.39622731  0.10078669     0.20400
C152        C  0.16799279  0.38125845  0.11631864    -0.54500
C153        C  0.14514524  0.40307423  0.09467067     0.09500
C154        C  0.11854193  0.38153976  0.16328138    -0.54000
C155        C  0.09592575  0.40337329  0.14165830     0.10100
H156        H  0.11878900  0.29998968  0.11679695     0.14600
H157        H  0.08350086  0.41401661  0.08315259     0.00300
H158        H  0.19895850  0.38287530  0.11540412     0.14900
H159        H  0.11747322  0.38301117  0.19266391     0.14700
N160        N  0.05853976  0.34081572  0.00255046    -0.36600
N161        N  0.49986004  0.33733206  0.05817687    -0.57200
N162        N  0.44080977  0.34152210  0.00299215    -0.36600
N163        N  0.49950005  0.33717971  0.44746502    -0.57200
C164        C  0.08044593  0.33377998  0.03194575     0.27000
C165        C  0.08028580  0.33429188  0.47295306     0.27000
C166        C  0.41925572  0.33411159  0.03251963     0.27000
C167        C  0.41904764  0.33406414  0.47363061     0.27000
C168        C  0.03077188  0.33098315  0.07913582     0.35600
C169        C  0.46904325  0.33150088  0.07939903     0.35600
C170        C  0.03033314  0.33555165  0.42548172     0.35600
C171        C  0.46847705  0.33541555  0.42575059     0.35600
C172        C  0.11627571  0.32193083  0.02100813    -0.21900
C173        C  0.11616554  0.32220840  0.48359268    -0.21900
C174        C  0.38371039  0.32113320  0.02192659    -0.21900
C175        C  0.38358021  0.32107319  0.48454534    -0.21900
C176        C  0.01963923  0.31841186  0.11294854    -0.22900
C177        C  0.48027472  0.31869918  0.11310295    -0.22900
C178        C  0.01889985  0.33001884  0.39012681    -0.22900
C179        C  0.47959735  0.32988005  0.39030828    -0.22900
C180        C  0.06879925  0.33728207  0.06833365    -0.18300
C181        C  0.06869087  0.33929897  0.43668430    -0.18300
C182        C  0.43023187  0.33898782  0.43730626    -0.18300
C183        C  0.43102922  0.33809265  0.06874793    -0.18300
H184        H  0.13954286  0.31279859  0.03825346     0.14600
H185        H  0.13939386  0.31343554  0.46613686     0.14600
H186        H  0.36086316  0.31140131  0.03938383     0.14600
H187        H  0.36053051  0.31143054  0.46729157     0.14600
H188        H  0.03805154  0.30899330  0.13472250     0.12900
H189        H  0.46193157  0.30942748  0.13498151     0.12900
H190        H  0.03718418  0.32505326  0.36700517     0.12900
H191        H  0.46112178  0.32473182  0.36736635     0.12900
H192        H  0.03111599  0.35183948  0.00270747     0.26200
H193        H  0.46793844  0.35333498  0.00290187     0.26200
C194        C  0.14252230  0.14756542  0.14258522     0.86500
C195        C  0.16607473  0.12179853  0.11695650    -0.53700
C196        C  0.14399970  0.09904636  0.09534998     0.09400
C197        C  0.10073592  0.10433957  0.10151596     0.20400
C198        C  0.11544741  0.17018535  0.11747760    -0.54500
C199        C  0.09346610  0.14749384  0.09590866     0.09500
C200        C  0.11664590  0.12008449  0.16391031    -0.54000
C201        C  0.09486946  0.09727637  0.14243901     0.10100
H202        H  0.19709050  0.12132824  0.11620806     0.14600
H203        H  0.08272875  0.08578990  0.08402085     0.00300
H204        H  0.11397483  0.20116432  0.11656185     0.14900
H205        H  0.11543255  0.11898414  0.19330461     0.14700
N206        N  0.43946686  0.49992429  0.15210312    -0.36600
N207        N  0.49859231  0.44208081  0.15685144    -0.57200
N208        N  0.05705033  0.00020988  0.15222578    -0.36600
N209        N  0.49791715  0.05805311  0.15685340    -0.57200
C210        C  0.41890055  0.46892490  0.16174049     0.27000
C211        C  0.41853530  0.03085964  0.16123389     0.27000
C212        C  0.07798658  0.46927006  0.16134458     0.27000
C213        C  0.07761368  0.03121551  0.16184616     0.27000
C214        C  0.46796191  0.41909290  0.16045783     0.35600
C215        C  0.02937357  0.41917889  0.15989969     0.35600
C216        C  0.46712972  0.08096319  0.15979070     0.35600
C217        C  0.02853887  0.08105156  0.16045376     0.35600
C218        C  0.38522507  0.48013565  0.17810219    -0.21900
C219        C  0.38500615  0.01955820  0.17780209    -0.21900
C220        C  0.11152280  0.48057637  0.17789441    -0.21900
C221        C  0.11129875  0.02000323  0.17819206    -0.21900
C222        C  0.47919715  0.38235876  0.16867761    -0.22900
C223        C  0.01843551  0.38241695  0.16832100    -0.22900
C224        C  0.47804881  0.11774762  0.16813561    -0.22900
C225        C  0.01728542  0.11780850  0.16855532    -0.22900
C226        C  0.42998765  0.43084911  0.15633885    -0.18300
C227        C  0.42928144  0.06895426  0.15534489    -0.18300
C228        C  0.06652322  0.06929474  0.15641625    -0.18300
C229        C  0.06723105  0.43116991  0.15546423    -0.18300
H230        H  0.36364252  0.46177552  0.18984569     0.14600
H231        H  0.36324092  0.03786608  0.18930621     0.14600
H232        H  0.13329946  0.46227028  0.18938331     0.14600
H233        H  0.13289047  0.03836402  0.18991345     0.14600
H234        H  0.46087761  0.35863922  0.17575963     0.12900
H235        H  0.03696717  0.35878634  0.17515379     0.12900
H236        H  0.45950244  0.14139036  0.17488805     0.12900
H237        H  0.03559048  0.14154794  0.17560368     0.12900
H238        H  0.46519318  0.49993766  0.13800891     0.26200
H239        H  0.03132088  0.00019632  0.13814268     0.26200
N240        N  0.15666394  0.44261480  0.00256614    -0.36600
N241        N  0.16071035  0.00163421  0.44733106    -0.57200
N242        N  0.15744731  0.06033484  0.00293947    -0.36600
N243        N  0.16118188  0.00134490  0.05808154    -0.57200
C244        C  0.16395161  0.42102451  0.47303459     0.27000
C245        C  0.16408659  0.42084596  0.03193440     0.27000
C246        C  0.16428126  0.08225829  0.47351331     0.27000
C247        C  0.16386943  0.08214628  0.03250469     0.27000
C248        C  0.16655413  0.47081573  0.42612690     0.35600
C249        C  0.16707372  0.03253366  0.42635934     0.35600
C250        C  0.16300851  0.47032324  0.07980262     0.35600
C251        C  0.16288006  0.03220514  0.08002894     0.35600
C252        C  0.17680378  0.38543356  0.48363773    -0.21900
C253        C  0.17691069  0.38531836  0.02102041    -0.21900
C254        C  0.17589756  0.11818072  0.48440108    -0.21900
C255        C  0.17567781  0.11810401  0.02181387    -0.21900
C256        C  0.17933678  0.48203247  0.39241238    -0.22900
C257        C  0.17962960  0.02139196  0.39254859    -0.22900
C258        C  0.16866064  0.48147100  0.11522416    -0.22900
C259        C  0.16852496  0.02078706  0.11537867    -0.22900
C260        C  0.16000490  0.43280655  0.43679286    -0.18300
C261        C  0.15929624  0.43206991  0.06826822    -0.18300
C262        C  0.15900752  0.07056027  0.06879336    -0.18300
C263        C  0.16080450  0.07056206  0.43713821    -0.18300
H264        H  0.18643886  0.36254547  0.46618460     0.14600
H265        H  0.18648895  0.36223759  0.03827487     0.14600
H266        H  0.18485692  0.14149104  0.46712242     0.14600
H267        H  0.18432297  0.14140740  0.03923462     0.14600
H268        H  0.18860994  0.46368068  0.37054498     0.12900
H269        H  0.18905818  0.03979583  0.37076960     0.12900
H270        H  0.17383276  0.46300915  0.13817667     0.12900
H271        H  0.17351457  0.03908481  0.13848547     0.12900
H272        H  0.14495702  0.46978520  0.00266592     0.26200
H273        H  0.14661528  0.03283871  0.00282849     0.26200
N274        N  0.43794364  0.15933964  0.00250310    -0.36600
N275        N  0.49661741  0.16280421  0.05813169    -0.57200
N276        N  0.05566662  0.15849172  0.00293982    -0.36600
N277        N  0.49694445  0.16285915  0.44740576    -0.57200
C278        C  0.41599929  0.16625238  0.03189347     0.27000
C279        C  0.41614433  0.16566700  0.47290918     0.27000
C280        C  0.07721025  0.16596973  0.03246012     0.27000
C281        C  0.07739584  0.16600347  0.47356135     0.27000
C282        C  0.46569645  0.16922369  0.07906376     0.35600
C283        C  0.02743263  0.16866677  0.07934262     0.35600
C284        C  0.46610542  0.16446553  0.42543058     0.35600
C285        C  0.02796067  0.16462926  0.42568528     0.35600
C286        C  0.38008125  0.17782545  0.02095629    -0.21900
C287        C  0.38018270  0.17750416  0.48354566    -0.21900
C288        C  0.11271659  0.17903967  0.02184288    -0.21900
C289        C  0.11283192  0.17909122  0.48445881    -0.21900
C290        C  0.47682691  0.18187152  0.11284942    -0.22900
C291        C  0.01619553  0.18155603  0.11301523    -0.22900
C292        C  0.47753078  0.16998770  0.39006967    -0.22900
C293        C  0.01683309  0.17014006  0.39024065    -0.22900
C294        C  0.42766950  0.16285653  0.06827785    -0.18300
C295        C  0.42775112  0.16068387  0.43664610    -0.18300
C296        C  0.06620402  0.16107007  0.43723553    -0.18300
C297        C  0.06544413  0.16201732  0.06870287    -0.18300
H298        H  0.35675854  0.18681812  0.03819923     0.14600
H299        H  0.35689164  0.18609852  0.46608796     0.14600
H300        H  0.13554361  0.18884202  0.03928467     0.14600
H301        H  0.13585006  0.18879557  0.46719205     0.14600
H302        H  0.45841176  0.19133413  0.13460468     0.12900
H303        H  0.03453592  0.19085103  0.13488324     0.12900
H304        H  0.45924124  0.17493381  0.36694963     0.12900
H305        H  0.03530331  0.17527505  0.36728824     0.12900
H306        H  0.46543998  0.14851711  0.00266837     0.26200
H307        H  0.02856387  0.14661357  0.00286396     0.26200
C308        C  0.35105633  0.14525081  0.14212259     0.86500
C309        C  0.37727439  0.16909413  0.11720074    -0.53700
C310        C  0.39999036  0.14733859  0.09534359     0.09400
C311        C  0.39434296  0.10388919  0.10070530     0.20400
C312        C  0.32848210  0.11886264  0.11628833    -0.54500
C313        C  0.35130376  0.09704377  0.09461881     0.09500
C314        C  0.37796465  0.11855357  0.16321523    -0.54000
C315        C  0.40056349  0.09673179  0.14156763     0.10100
H316        H  0.37771190  0.20012403  0.11676471     0.14600
H317        H  0.41294626  0.08610578  0.08305491     0.00300
H318        H  0.29751563  0.11724336  0.11540995     0.14900
H319        H  0.37905829  0.11707160  0.19259644     0.14700
N320        N  0.33971955  0.05745848  0.00256623    -0.36600
N321        N  0.33556732  0.49841128  0.44735699    -0.57200
N322        N  0.33890274  0.43972683  0.00296333    -0.36600
N323        N  0.33519202  0.49874053  0.05808323    -0.57200
C324        C  0.33229646  0.07900814  0.47303452     0.27000
C325        C  0.33221704  0.07920589  0.03192876     0.27000
C326        C  0.33203633  0.41779737  0.47355140     0.27000
C327        C  0.33247397  0.41792662  0.03254051     0.27000
C328        C  0.32972223  0.02922932  0.42614621     0.35600
C329        C  0.32921466  0.46750846  0.42639009     0.35600
C330        C  0.33341271  0.02976333  0.07980456     0.35600
C331        C  0.33351399  0.46787981  0.08004020     0.35600
C332        C  0.31926097  0.11453396  0.48362953    -0.21900
C333        C  0.31919027  0.11466115  0.02101289    -0.21900
C334        C  0.32038461  0.38189045  0.48445943    -0.21900
C335        C  0.32062083  0.38197759  0.02187284    -0.21900
C336        C  0.31692914  0.01801157  0.39243892    -0.22900
C337        C  0.31664217  0.47864907  0.39258306    -0.22900
C338        C  0.32779234  0.01861726  0.11523152    -0.22900
C339        C  0.32791073  0.47930082  0.11539252    -0.22900
C340        C  0.33629422  0.06723595  0.43680118    -0.18300
C341        C  0.33711273  0.06801738  0.06825696    -0.18300
C342        C  0.33738275  0.42952086  0.06881708    -0.18300
C343        C  0.33552305  0.42948129  0.43717310    -0.18300
H344        H  0.30949705  0.13736741  0.46617206     0.14600
H345        H  0.30951421  0.13769913  0.03826711     0.14600
H346        H  0.31139675  0.35858591  0.46719298     0.14600
H347        H  0.31196217  0.35868808  0.03931002     0.14600
H348        H  0.30765734  0.03636418  0.37056827     0.12900
H349        H  0.30721847  0.46024288  0.37080896     0.12900
H350        H  0.32264531  0.03708228  0.13818291     0.12900
H351        H  0.32294151  0.46100285  0.13850771     0.12900
H352        H  0.35156460  0.03034165  0.00266328     0.26200
H353        H  0.34975987  0.46721367  0.00283726     0.26200
C354        C  0.16594090  0.17210461  0.66731732     0.42500
N355        N  0.20229436  0.18359479  0.71290457     0.01400
C356        C  0.20458844  0.34579051  0.81955843    -0.06500
H357        H  0.22255536  0.36913711  0.67883418     0.06800
C358        C  0.34404117  0.29370719  0.68602038    -0.06900
Co359      Co  0.17842056  0.25378152  0.75296157     0.74200
N360        N  0.20968404  0.32084740  0.71298102    -0.26100
Co361      Co  0.25200323  0.31988397  0.75257641     0.74100
C362        C  0.33060692  0.32802048  0.66739266     0.42600
N363        N  0.31506459  0.20420179  0.71314576     0.01000
N364        N  0.29424012  0.31649393  0.71295805     0.01100
N365        N  0.15707939  0.30215414  0.81912004    -0.46900
H366        H  0.12797012  0.22417379  0.68016732     0.06800
N367        N  0.18147454  0.29588038  0.71314562     0.01400
N368        N  0.29408125  0.31680809  0.79241308     0.01100
C369        C  0.32973156  0.32828669  0.83851975     0.42700
N370        N  0.28684697  0.17924357  0.71296943    -0.25500
C371        C  0.15343737  0.20640282  0.82035648    -0.06400
N372        N  0.19612897  0.15888308  0.68637780    -0.46600
N373        N  0.30005410  0.34169254  0.81884048    -0.46800
C374        C  0.16672278  0.17173094  0.83845011     0.42500
N375        N  0.18180792  0.29599843  0.79260393     0.01300
N376        N  0.28676307  0.17877586  0.79212958    -0.25500
N377        N  0.17703003  0.21152551  0.71337218    -0.26000
N378        N  0.31468850  0.20404618  0.79260139     0.01000
H379        H  0.27412260  0.12970131  0.82533026     0.06900
H380        H  0.36727356  0.27566214  0.82676303     0.06900
N381        N  0.20972926  0.32127354  0.79214793    -0.26100
N382        N  0.31951106  0.28856831  0.71342158    -0.25700
N383        N  0.20241147  0.18323042  0.79236872     0.01400
C384        C  0.16994221  0.33157241  0.66707730     0.42700
C385        C  0.29191545  0.15522280  0.68515078    -0.06900
N386        N  0.31903437  0.28858760  0.79258275    -0.25700
H387        H  0.36859131  0.27595357  0.68022974     0.06900
N388        N  0.15656840  0.30186478  0.68673838    -0.46900
H389        H  0.27395529  0.13098227  0.67880904     0.06900
C390        C  0.32617837  0.16768713  0.83818389     0.42600
C391        C  0.15251414  0.20641160  0.68595755    -0.06400
Co392      Co  0.24451110  0.18018218  0.75254505     0.73800
N393        N  0.33997228  0.19822123  0.68673532    -0.46600
C394        C  0.17027737  0.33234679  0.83818691     0.42800
N395        N  0.19641317  0.15832890  0.81878334    -0.46600
Co396      Co  0.31810275  0.24628384  0.75298358     0.73900
C397        C  0.34304021  0.29362997  0.82041771    -0.06900
C398        C  0.20460692  0.34488381  0.68516890    -0.06500
N399        N  0.17746473  0.21145565  0.79253809    -0.26000
N400        N  0.30040814  0.34122406  0.68644410    -0.46800
H401        H  0.22233653  0.37034418  0.82535498     0.06900
C402        C  0.29187984  0.15425212  0.81954064    -0.06900
Cl403      Cl  0.24826010  0.25003297  0.75276356    -0.49900
C404        C  0.32658386  0.16852994  0.66706397     0.42600
H405        H  0.12920284  0.22437190  0.82669233     0.06800
N406        N  0.33939750  0.19788117  0.81912832    -0.46600
C407        C  0.35304066  0.35278234  0.86340818     0.86500
C408        C  0.37939080  0.33024487  0.88930387    -0.53700
C409        C  0.40121486  0.35311274  0.91092507     0.09400
C410        C  0.39443963  0.39613880  0.90472003     0.20400
C411        C  0.32922631  0.37908098  0.88827138    -0.54500
C412        C  0.35100484  0.40181328  0.91008968     0.09500
C413        C  0.37977177  0.37960847  0.84225097    -0.54000
C414        C  0.40161545  0.40224707  0.86383703     0.10100
H415        H  0.38098138  0.29927693  0.89025786     0.14600
H416        H  0.41223762  0.41476940  0.92233003     0.00300
H417        H  0.29819898  0.37952904  0.88872677     0.14900
H418        H  0.38124267  0.38063522  0.81286681     0.14700
C419        C  0.35072512  0.14425849  0.86288897     0.86500
C420        C  0.37814625  0.11834657  0.84153989    -0.53700
C421        C  0.40095630  0.09654461  0.86298715     0.09400
C422        C  0.39395661  0.10243680  0.90392166     0.20400
C423        C  0.32811096  0.11722359  0.88803374    -0.54500
C424        C  0.35080901  0.09523699  0.90958919     0.09500
C425        C  0.37653993  0.16779389  0.88848121    -0.54000
C426        C  0.39928026  0.14569657  0.91007918     0.10100
H427        H  0.37921586  0.11714132  0.81214467     0.14600
H428        H  0.41250685  0.08441604  0.92140663     0.00300
H429        H  0.29713341  0.11577734  0.88898348     0.14900
H430        H  0.37703007  0.19881103  0.88923264     0.14700
C431        C  0.14570444  0.35576432  0.86288902     0.86500
C432        C  0.16828389  0.38283420  0.88802398    -0.53700
C433        C  0.14555061  0.40480113  0.90956825     0.09400
C434        C  0.10241946  0.39755833  0.90389767     0.20400
C435        C  0.11991053  0.33221291  0.88850096    -0.54500
C436        C  0.09715162  0.35429483  0.91009704     0.09500
C437        C  0.11826425  0.38164736  0.84152594    -0.54000
C438        C  0.09543660  0.40344609  0.86295707     0.10100
H439        H  0.19925932  0.38430736  0.88898442     0.14600
H440        H  0.08384538  0.41556734  0.92136919     0.00300
H441        H  0.11945465  0.30119548  0.88927031     0.14900
H442        H  0.11720983  0.38285235  0.81213003     0.14700
C443        C  0.14338926  0.14723955  0.86333026     0.86500
C444        C  0.11703565  0.16979103  0.88921134    -0.53700
C445        C  0.09519941  0.14693477  0.91083903     0.09400
C446        C  0.10194439  0.10390603  0.90463635     0.20400
C447        C  0.16717598  0.12093888  0.88821565    -0.54500
C448        C  0.14536816  0.09822524  0.91003350     0.09500
C449        C  0.11666211  0.12041627  0.84216810    -0.54000
C450        C  0.09479696  0.09778240  0.86374909     0.10100
H451        H  0.11546591  0.20075996  0.89016465     0.14600
H452        H  0.08412717  0.08528595  0.92224460     0.00300
H453        H  0.19820291  0.12048008  0.88869066     0.14900
H454        H  0.11521426  0.11938576  0.81278363     0.14700
N455        N  0.49839403  0.44122682  0.85312628    -0.36600
N456        N  0.05621217  0.00040137  0.84841308    -0.57200
N457        N  0.49802273  0.05878889  0.85311859    -0.36600
N458        N  0.44020243  0.99961061  0.84850693    -0.57200
C459        C  0.02940736  0.42069331  0.84347392     0.27000
C460        C  0.46746763  0.42026190  0.84402507     0.27000
C461        C  0.02893748  0.07975312  0.84397014     0.27000
C462        C  0.46699409  0.07931228  0.84348475     0.27000
C463        C  0.07921608  0.46978536  0.84478248     0.35600
C464        C  0.07908440  0.03121193  0.84538928     0.35600
C465        C  0.41732743  0.46880412  0.84551206     0.35600
C466        C  0.41719088  0.03021852  0.84488538     0.35600
C467        C  0.01821467  0.38701280  0.82710761    -0.21900
C468        C  0.47879110  0.38675263  0.82743342    -0.21900
C469        C  0.01759094  0.11325281  0.82736965    -0.21900
C470        C  0.47816621  0.11298447  0.82708143    -0.21900
C471        C  0.11593806  0.48106221  0.83655860    -0.22900
C472        C  0.11585066  0.02031047  0.83694636    -0.22900
C473        C  0.38055194  0.47969841  0.83710510    -0.22900
C474        C  0.38046084  0.01894165  0.83670419    -0.22900
C475        C  0.06747735  0.43179461  0.84891467    -0.18300
C476        C  0.42936577  0.43096529  0.84997365    -0.18300
C477        C  0.42892855  0.06820586  0.84896809    -0.18300
C478        C  0.06704929  0.06905577  0.84987944    -0.18300
H479        H  0.03658705  0.36543737  0.81537341     0.14600
H480        H  0.46049831  0.36496031  0.81595391     0.14300
H481        H  0.03586908  0.13504347  0.81585924     0.14600
H482        H  0.45977932  0.13454932  0.81534791     0.14600
H483        H  0.13967247  0.46276693  0.82947049     0.12900
H484        H  0.13946798  0.03887133  0.83013577     0.12900
H485        H  0.35693459  0.46113446  0.83030970     0.12900
H486        H  0.35672339  0.03723378  0.82961913     0.12900
H487        H  0.49837181  0.46694510  0.86723132     0.26200
H488        H  0.49806710  0.03307731  0.86724097     0.26200
C489        C  0.35399086  0.35255892  0.64263499     0.86500
C490        C  0.33040101  0.37829691  0.61701035    -0.53700
C491        C  0.35244158  0.40104800  0.59536682     0.09400
C492        C  0.39571704  0.39578021  0.60149720     0.20400
C493        C  0.38105072  0.32993693  0.61752664    -0.54500
C494        C  0.40300298  0.35262649  0.59592870     0.09500
C495        C  0.37987566  0.38006108  0.66391724    -0.54000
C496        C  0.40162871  0.40286093  0.64240826     0.10100
H497        H  0.29938448  0.37875220  0.61629358     0.14600
H498        H  0.41369850  0.41432758  0.58396996     0.00300
H499        H  0.38254711  0.29895798  0.61663933     0.14900
H500        H  0.38111497  0.38117768  0.69330943     0.14700
C501        C  0.14544267  0.35485653  0.64216178     0.86500
C502        C  0.11921668  0.33101950  0.61724352    -0.53700
C503        C  0.09649227  0.35278213  0.59539525     0.09400
C504        C  0.10211699  0.39622730  0.60078684     0.20400
C505        C  0.16799215  0.38125841  0.61631876    -0.54500
C506        C  0.14514502  0.40307421  0.59467063     0.09500
C507        C  0.11854181  0.38153969  0.66328211    -0.54000
C508        C  0.09592578  0.40337320  0.64165865     0.10100
H509        H  0.11878911  0.29998968  0.61679672     0.14600
H510        H  0.08350084  0.41401669  0.58315273     0.00300
H511        H  0.19895816  0.38287524  0.61540428     0.14900
H512        H  0.11747290  0.38301068  0.69266439     0.14700
N513        N  0.05853985  0.34081584  0.50255042    -0.36600
N514        N  0.49985995  0.33733216  0.55817692    -0.57200
N515        N  0.44080939  0.34152201  0.50299228    -0.36600
N516        N  0.49950015  0.33717968  0.94746491    -0.57200
C517        C  0.08044607  0.33377988  0.53194585     0.27000
C518        C  0.08028578  0.33429184  0.97295291     0.27000
C519        C  0.41925510  0.33411141  0.53251978     0.27000
C520        C  0.41904817  0.33406442  0.97363067     0.27000
C521        C  0.03077189  0.33098309  0.57913589     0.35600
C522        C  0.46904318  0.33150088  0.57939913     0.35600
C523        C  0.03033306  0.33555170  0.92548172     0.35600
C524        C  0.46847711  0.33541551  0.92575051     0.35600
C525        C  0.11627610  0.32193058  0.52100847    -0.21900
C526        C  0.11616567  0.32220846  0.98359234    -0.21900
C527        C  0.38370959  0.32113291  0.52192678    -0.21900
C528        C  0.38358092  0.32107346  0.98454551    -0.21900
C529        C  0.01963937  0.31841169  0.61294886    -0.22900
C530        C  0.48027448  0.31869892  0.61310330    -0.22900
C531        C  0.01889950  0.33001879  0.89012698    -0.22900
C532        C  0.47959725  0.32988001  0.89030816    -0.22900
C533        C  0.06879925  0.33728215  0.56833362    -0.18300
C534        C  0.06869083  0.33929899  0.93668424    -0.18300
C535        C  0.43023202  0.33898786  0.93730624    -0.18300
C536        C  0.43102902  0.33809272  0.56874803    -0.18300
H537        H  0.13954322  0.31279806  0.53825342     0.14600
H538        H  0.13939404  0.31343569  0.96613681     0.14600
H539        H  0.36086260  0.31140117  0.53938398     0.14600
H540        H  0.36053065  0.31143089  0.96729197     0.14600
H541        H  0.03805179  0.30899305  0.63472254     0.12900
H542        H  0.46193115  0.30942734  0.63498155     0.12900
H543        H  0.03718371  0.32505357  0.86700503     0.12900
H544        H  0.46112133  0.32473130  0.86736655     0.12900
H545        H  0.03111617  0.35183983  0.50270727     0.26200
H546        H  0.46793773  0.35333483  0.50290202     0.26200
C547        C  0.14252233  0.14756518  0.64258517     0.86500
C548        C  0.16607474  0.12179842  0.61695650    -0.53700
C549        C  0.14399970  0.09904619  0.59534992     0.09400
C550        C  0.10073576  0.10433924  0.60151577     0.20400
C551        C  0.11544748  0.17018468  0.61747764    -0.54500
C552        C  0.09346603  0.14749346  0.59590868     0.09500
C553        C  0.11664586  0.12008440  0.66391017    -0.54000
C554        C  0.09486934  0.09727623  0.64243889     0.10100
H555        H  0.19709061  0.12132799  0.61620835     0.14600
H556        H  0.08272867  0.08578983  0.58402053     0.00300
H557        H  0.11397536  0.20116392  0.61656157     0.14900
H558        H  0.11543303  0.11898370  0.69330447     0.14700
N559        N  0.43946651  0.49992435  0.65210325    -0.36600
N560        N  0.49859231  0.44208090  0.65685137    -0.57200
N561        N  0.05705019  0.00020992  0.65222582    -0.36600
N562        N  0.49791716  0.05805311  0.65685341    -0.57200
C563        C  0.41890035  0.46892498  0.66174056     0.27000
C564        C  0.41853524  0.03085956  0.66123381     0.27000
C565        C  0.07798653  0.46927011  0.66134455     0.27000
C566        C  0.07761359  0.03121551  0.66184605     0.27000
C567        C  0.46796196  0.41909301  0.66045769     0.35600
C568        C  0.02937369  0.41917872  0.65989972     0.35600
C569        C  0.46712976  0.08096310  0.65979058     0.35600
C570        C  0.02853886  0.08105160  0.66045373     0.35600
C571        C  0.38522492  0.48013599  0.67810235    -0.21900
C572        C  0.38500623  0.01955808  0.67780220    -0.21900
C573        C  0.11152262  0.48057667  0.67789422    -0.21900
C574        C  0.11129853  0.02000339  0.67819183    -0.21900
C575        C  0.47919750  0.38235913  0.66867747    -0.22900
C576        C  0.01843585  0.38241659  0.66832102    -0.22900
C577        C  0.47804911  0.11774736  0.66813562    -0.22900
C578        C  0.01728546  0.11780855  0.66855547    -0.22900
C579        C  0.42998751  0.43084910  0.65633886    -0.18300
C580        C  0.42928137  0.06895427  0.65534489    -0.18300
C581        C  0.06652316  0.06929472  0.65641620    -0.18300
C582        C  0.06723106  0.43116989  0.65546428    -0.18300
H583        H  0.36364265  0.46177546  0.68984559     0.14600
H584        H  0.36324101  0.03786589  0.68930670     0.14600
H585        H  0.13329962  0.46227068  0.68938318     0.14600
H586        H  0.13289035  0.03836452  0.68991294     0.14600
H587        H  0.46087806  0.35863916  0.67575928     0.12900
H588        H  0.03696752  0.35878626  0.67515415     0.12900
H589        H  0.45950276  0.14139020  0.67488812     0.12900
H590        H  0.03559063  0.14154800  0.67560392     0.12900
H591        H  0.46519277  0.49993762  0.63800890     0.26200
H592        H  0.03132073  0.00019657  0.63814287     0.26200
N593        N  0.15666363  0.44261460  0.50256611    -0.36600
N594        N  0.16071029  0.00163436  0.94733114    -0.57200
N595        N  0.15744728  0.06033430  0.50293935    -0.36600
N596        N  0.16118197  0.00134479  0.55808154    -0.57200
C597        C  0.16395176  0.42102432  0.97303460     0.27000
C598        C  0.16408631  0.42084625  0.53193420     0.27000
C599        C  0.16428138  0.08225853  0.97351342     0.27000
C600        C  0.16386930  0.08214591  0.53250443     0.27000
C601        C  0.16655418  0.47081564  0.92612702     0.35600
C602        C  0.16707369  0.03253386  0.92635941     0.35600
C603        C  0.16300846  0.47032322  0.57980263     0.35600
C604        C  0.16288015  0.03220508  0.58002881     0.35600
C605        C  0.17680362  0.38543374  0.98363811    -0.21900
C606        C  0.17691068  0.38531857  0.52102014    -0.21900
C607        C  0.17589768  0.11818089  0.98440139    -0.21900
C608        C  0.17567750  0.11810343  0.52181325    -0.21900
C609        C  0.17933673  0.48203218  0.89241254    -0.22900
C610        C  0.17962942  0.02139246  0.89254854    -0.22900
C611        C  0.16866069  0.48147092  0.61522419    -0.22900
C612        C  0.16852503  0.02078717  0.61537853    -0.22900
C613        C  0.16000495  0.43280636  0.93679280    -0.18300
C614        C  0.15929629  0.43207000  0.56826819    -0.18300
C615        C  0.15900755  0.07056020  0.56879324    -0.18300
C616        C  0.16080438  0.07056215  0.93713832    -0.18300
H617        H  0.18643901  0.36254564  0.96618477     0.14600
H618        H  0.18648900  0.36223794  0.53827481     0.14600
H619        H  0.18485715  0.14149088  0.96712241     0.14600
H620        H  0.18432270  0.14140729  0.53923405     0.14600
H621        H  0.18860978  0.46368002  0.87054531     0.12900
H622        H  0.18905756  0.03979615  0.87076939     0.12900
H623        H  0.17383307  0.46300939  0.63817677     0.12900
H624        H  0.17351458  0.03908534  0.63848513     0.12900
H625        H  0.14495568  0.46978509  0.50266587     0.26200
H626        H  0.14661559  0.03283792  0.50282851     0.26200
N627        N  0.43794382  0.15933950  0.50250314    -0.36600
N628        N  0.49661742  0.16280428  0.55813156    -0.57200
N629        N  0.05566652  0.15849167  0.50293986    -0.36600
N630        N  0.49694458  0.16285919  0.94740559    -0.57200
C631        C  0.41599968  0.16625230  0.53189340     0.27000
C632        C  0.41614399  0.16566722  0.97290906     0.27000
C633        C  0.07721019  0.16596975  0.53246021     0.27000
C634        C  0.07739593  0.16600352  0.97356126     0.27000
C635        C  0.46569649  0.16922372  0.57906377     0.35600
C636        C  0.02743271  0.16866669  0.57934248     0.35600
C637        C  0.46610551  0.16446536  0.92543049     0.35600
C638        C  0.02796074  0.16462923  0.92568523     0.35600
C639        C  0.38008150  0.17782537  0.52095629    -0.21900
C640        C  0.38018242  0.17750416  0.98354557    -0.21900
C641        C  0.11271645  0.17903971  0.52184316    -0.21900
C642        C  0.11283213  0.17909136  0.98445847    -0.21900
C643        C  0.47682688  0.18187144  0.61284941    -0.22900
C644        C  0.01619574  0.18155582  0.61301492    -0.22900
C645        C  0.47753104  0.16998775  0.89006957    -0.22900
C646        C  0.01683316  0.17014012  0.89024062    -0.22900
C647        C  0.42766966  0.16285668  0.56827783    -0.18300
C648        C  0.42775111  0.16068381  0.93664604    -0.18300
C649        C  0.06620407  0.16107013  0.93723546    -0.18300
C650        C  0.06544414  0.16201727  0.56870288    -0.18300
H651        H  0.35675859  0.18681802  0.53819915     0.14600
H652        H  0.35689151  0.18609866  0.96608777     0.14600
H653        H  0.13554317  0.18884256  0.53928507     0.14600
H654        H  0.13584991  0.18879601  0.96719170     0.14600
H655        H  0.45841199  0.19133394  0.63460483     0.12900
H656        H  0.03453641  0.19085064  0.63488294     0.12900
H657        H  0.45924131  0.17493350  0.86694957     0.12900
H658        H  0.03530336  0.17527531  0.86728830     0.12900
H659        H  0.46544055  0.14851680  0.50266850     0.26200
H660        H  0.02856386  0.14661346  0.50286392     0.26200
C661        C  0.35105632  0.14525090  0.64212224     0.86500
C662        C  0.37727452  0.16909405  0.61720051    -0.53700
C663        C  0.39999047  0.14733847  0.59534334     0.09400
C664        C  0.39434333  0.10388888  0.60070480     0.20400
C665        C  0.32848221  0.11886259  0.61628816    -0.54500
C666        C  0.35130394  0.09704370  0.59461863     0.09500
C667        C  0.37796454  0.11855367  0.66321441    -0.54000
C668        C  0.40056358  0.09673173  0.64156720     0.10100
H669        H  0.37771224  0.20012394  0.61676431     0.14600
H670        H  0.41294646  0.08610570  0.58305447     0.00300
H671        H  0.29751579  0.11724338  0.61540954     0.14900
H672        H  0.37905830  0.11707211  0.69259591     0.14700
N673        N  0.33971916  0.05745865  0.50256631    -0.36600
N674        N  0.33556737  0.49841125  0.94735722    -0.57200
N675        N  0.33890274  0.43972689  0.50296330    -0.36600
N676        N  0.33519210  0.49874039  0.55808297    -0.57200
C677        C  0.33229679  0.07900762  0.97303461     0.27000
C678        C  0.33221681  0.07920647  0.53192885     0.27000
C679        C  0.33203624  0.41779722  0.97355141     0.27000
C680        C  0.33247415  0.41792666  0.53254051     0.27000
C681        C  0.32972245  0.02922929  0.92614644     0.35600
C682        C  0.32921486  0.46750848  0.92639030     0.35600
C683        C  0.33341280  0.02976334  0.57980439     0.35600
C684        C  0.33351389  0.46787968  0.58004007     0.35600
C685        C  0.31926109  0.11453330  0.98362968    -0.21900
C686        C  0.31919011  0.11466175  0.52101305    -0.21900
C687        C  0.32038435  0.38189011  0.98445912    -0.21900
C688        C  0.32062093  0.38197781  0.52187296    -0.21900
C689        C  0.31692950  0.01801150  0.89243951    -0.22900
C690        C  0.31664240  0.47864912  0.89258346    -0.22900
C691        C  0.32779249  0.01861730  0.61523134    -0.22900
C692        C  0.32791081  0.47930052  0.61539237    -0.22900
C693        C  0.33629432  0.06723584  0.93680122    -0.18300
C694        C  0.33711262  0.06801755  0.56825692    -0.18300
C695        C  0.33738270  0.42952079  0.56881704    -0.18300
C696        C  0.33552294  0.42948120  0.93717315    -0.18300
H697        H  0.30949668  0.13736694  0.96617246     0.14600
H698        H  0.30951459  0.13769945  0.53826758     0.14600
H699        H  0.31139651  0.35858590  0.96719253     0.14600
H700        H  0.31196216  0.35868818  0.53931011     0.14600
H701        H  0.30765759  0.03636421  0.87056869     0.12900
H702        H  0.30721859  0.46024297  0.87080916     0.12900
H703        H  0.32264550  0.03708258  0.63818268     0.12900
H704        H  0.32294112  0.46100290  0.63850772     0.12900
H705        H  0.35156347  0.03034200  0.50266334     0.26200
H706        H  0.34975978  0.46721377  0.50283714     0.26200
C707        C  0.16594100  0.67210453  0.16731743     0.42500
N708        N  0.20229437  0.68359474  0.21290474     0.01400
C709        C  0.20458811  0.84579007  0.31955832    -0.06500
H710        H  0.22255553  0.86913696  0.17883407     0.06800
C711        C  0.34404074  0.79370750  0.18602047    -0.06900
Co712      Co  0.17842047  0.75378156  0.25296152     0.74200
N713        N  0.20968402  0.82084744  0.21298108    -0.26100
Co714      Co  0.25200327  0.81988393  0.25257650     0.74100
C715        C  0.33060672  0.82802062  0.16739267     0.42600
N716        N  0.31506450  0.70420164  0.21314571     0.01000
N717        N  0.29424007  0.81649403  0.21295819     0.01100
N718        N  0.15707915  0.80215410  0.31912003    -0.46900
H719        H  0.12796988  0.72417334  0.18016776     0.06800
N720        N  0.18147458  0.79588041  0.21314561     0.01400
N721        N  0.29408138  0.81680792  0.29241317     0.01100
C722        C  0.32973177  0.82828659  0.33851971     0.42700
N723        N  0.28684686  0.67924329  0.21296932    -0.25500
C724        C  0.15343766  0.70640263  0.32035655    -0.06400
N725        N  0.19612915  0.65888310  0.18637783    -0.46600
N726        N  0.30005416  0.84169245  0.31884050    -0.46800
C727        C  0.16672298  0.67173091  0.33845017     0.42500
N728        N  0.18180770  0.79599839  0.29260386     0.01300
N729        N  0.28676301  0.67877579  0.29212963    -0.25500
N730        N  0.17703016  0.71152548  0.21337225    -0.26000
N731        N  0.31468853  0.70404609  0.29260138     0.01000
H732        H  0.27412209  0.62970135  0.32533034     0.06900
H733        H  0.36727424  0.77566216  0.32676273     0.06900
N734        N  0.20972913  0.82127326  0.29214793    -0.26100
N735        N  0.31951093  0.78856833  0.21342168    -0.25700
N736        N  0.20241155  0.68323056  0.29236875     0.01400
C737        C  0.16994223  0.83157245  0.16707736     0.42700
C738        C  0.29191512  0.65522237  0.18515058    -0.06900
N739        N  0.31903456  0.78858746  0.29258291    -0.25700
H740        H  0.36859100  0.77595374  0.18022959     0.06900
N741        N  0.15656832  0.80186485  0.18673843    -0.46900
H742        H  0.27395521  0.63098199  0.17880882     0.06900
C743        C  0.32617819  0.66768693  0.33818389     0.42600
C744        C  0.15251437  0.70641141  0.18595768    -0.06400
Co745      Co  0.24451107  0.68018218  0.25254516     0.73800
N746        N  0.33997225  0.69822107  0.18673530    -0.46600
C747        C  0.17027720  0.83234659  0.33818700     0.42800
N748        N  0.19641320  0.65832889  0.31878329    -0.46600
Co749      Co  0.31810272  0.74628378  0.25298356     0.73900
C750        C  0.34304075  0.79362965  0.32041781    -0.06900
C751        C  0.20460701  0.84488389  0.18516895    -0.06500
N752        N  0.17746476  0.71145570  0.29253808    -0.26000
N753        N  0.30040807  0.84122415  0.18644428    -0.46800
H754        H  0.22233671  0.87034369  0.32535492     0.06900
C755        C  0.29187960  0.65425187  0.31954063    -0.06900
Cl756      Cl  0.24826004  0.75003296  0.25276361    -0.49900
C757        C  0.32658378  0.66852979  0.16706397     0.42600
H758        H  0.12920337  0.72437194  0.32669296     0.06800
N759        N  0.33939745  0.69788100  0.31912830    -0.46600
C760        C  0.35304082  0.85278238  0.36340800     0.86500
C761        C  0.37939094  0.83024496  0.38930381    -0.53700
C762        C  0.40121485  0.85311284  0.41092506     0.09400
C763        C  0.39443972  0.89613891  0.40472005     0.20400
C764        C  0.32922651  0.87908098  0.38827127    -0.54500
C765        C  0.35100494  0.90181325  0.41008966     0.09500
C766        C  0.37977187  0.87960852  0.34225053    -0.54000
C767        C  0.40161550  0.90224700  0.36383688     0.10100
H768        H  0.38098161  0.79927696  0.39025817     0.14600
H769        H  0.41223759  0.91476950  0.42233006     0.00300
H770        H  0.29819912  0.87952923  0.38872622     0.14900
H771        H  0.38124277  0.88063545  0.31286656     0.14700
C772        C  0.35072478  0.64425809  0.36288893     0.86500
C773        C  0.37814613  0.61834644  0.34153981    -0.53700
C774        C  0.40095636  0.59654465  0.36298712     0.09400
C775        C  0.39395652  0.60243674  0.40392171     0.20400
C776        C  0.32811027  0.61722345  0.38803387    -0.54500
C777        C  0.35080870  0.59523696  0.40958924     0.09500
C778        C  0.37653974  0.66779310  0.38848111    -0.54000
C779        C  0.39928020  0.64569630  0.41007918     0.10100
H780        H  0.37921548  0.61714114  0.31214452     0.14600
H781        H  0.41250671  0.58441615  0.42140681     0.00300
H782        H  0.29713300  0.61577717  0.38898353     0.14900
H783        H  0.37702996  0.69881054  0.38923211     0.14700
C784        C  0.14570419  0.85576424  0.36288899     0.86500
C785        C  0.16828321  0.88283418  0.38802400    -0.53700
C786        C  0.14555030  0.90480110  0.40956839     0.09400
C787        C  0.10241933  0.89755834  0.40389769     0.20400
C788        C  0.11991041  0.83221289  0.38850102    -0.54500
C789        C  0.09715162  0.85429484  0.41009716     0.09500
C790        C  0.11826418  0.88164726  0.34152583    -0.54000
C791        C  0.09543651  0.90344594  0.36295702     0.10100
H792        H  0.19925891  0.88430712  0.38898478     0.14600
H793        H  0.08384524  0.91556747  0.42136921     0.00300
H794        H  0.11945470  0.80119547  0.38927083     0.14900
H795        H  0.11720973  0.88285208  0.31212993     0.14700
C796        C  0.14338926  0.64723963  0.36333021     0.86500
C797        C  0.11703565  0.66979118  0.38921134    -0.53700
C798        C  0.09519949  0.64693486  0.41083901     0.09400
C799        C  0.10194456  0.60390621  0.40463617     0.20400
C800        C  0.16717600  0.62093898  0.38821548    -0.54500
C801        C  0.14536825  0.59822528  0.41003334     0.09500
C802        C  0.11666218  0.62041628  0.34216801    -0.54000
C803        C  0.09479703  0.59778239  0.36374898     0.10100
H804        H  0.11546590  0.70076012  0.39016474     0.14600
H805        H  0.08412719  0.58528617  0.42224458     0.00300
H806        H  0.19820293  0.62048056  0.38869060     0.14900
H807        H  0.11521386  0.61938633  0.31278359     0.14700
N808        N  0.49839395  0.94122692  0.35312638    -0.36600
N809        N  0.05621212  0.50040138  0.34841297    -0.57200
N810        N  0.49802285  0.55878873  0.35311870    -0.36600
N811        N  0.44020240  0.49961059  0.34850689    -0.57200
C812        C  0.02940752  0.92069322  0.34347393     0.27000
C813        C  0.46746768  0.92026218  0.34402528     0.27000
C814        C  0.02893739  0.57975301  0.34397021     0.27000
C815        C  0.46699415  0.57931207  0.34348475     0.27000
C816        C  0.07921612  0.96978532  0.34478250     0.35600
C817        C  0.07908436  0.53121193  0.34538934     0.35600
C818        C  0.41732694  0.96880399  0.34551200     0.35600
C819        C  0.41719080  0.53021842  0.34488548     0.35600
C820        C  0.01821495  0.88701268  0.32710748    -0.21900
C821        C  0.47879145  0.88675336  0.32743379    -0.21900
C822        C  0.01759076  0.61325247  0.32736973    -0.21900
C823        C  0.47816644  0.61298424  0.32708160    -0.21900
C824        C  0.11593807  0.98106223  0.33655864    -0.22900
C825        C  0.11585059  0.52031048  0.33694651    -0.22900
C826        C  0.38055106  0.97969789  0.33710477    -0.22900
C827        C  0.38046075  0.51894147  0.33670411    -0.22900
C828        C  0.06747740  0.93179458  0.34891471    -0.18300
C829        C  0.42936565  0.93096531  0.34997364    -0.18300
C830        C  0.42892858  0.56820576  0.34896818    -0.18300
C831        C  0.06704928  0.56905580  0.34987930    -0.18300
H832        H  0.03658691  0.86543692  0.31537355     0.14600
H833        H  0.46049845  0.86496100  0.31595393     0.14300
H834        H  0.03586918  0.63504296  0.31585906     0.14600
H835        H  0.45977992  0.63454946  0.31534782     0.14600
H836        H  0.13967256  0.96276699  0.32947051     0.12900
H837        H  0.13946816  0.53887136  0.33013647     0.12900
H838        H  0.35693433  0.96113392  0.33030925     0.12900
H839        H  0.35672339  0.53723377  0.32961921     0.12900
H840        H  0.49837159  0.96694518  0.36723151     0.26200
H841        H  0.49806740  0.53307725  0.36724114     0.26200
C842        C  0.35399107  0.85255899  0.14263505     0.86500
C843        C  0.33040166  0.87829697  0.11701035    -0.53700
C844        C  0.35244192  0.90104803  0.09536662     0.09400
C845        C  0.39571735  0.89578047  0.10149689     0.20400
C846        C  0.38105080  0.82993703  0.11752669    -0.54500
C847        C  0.40300307  0.85262660  0.09592863     0.09500
C848        C  0.37987585  0.88006111  0.16391721    -0.54000
C849        C  0.40162886  0.90286101  0.14240812     0.10100
H850        H  0.29938493  0.87875266  0.11629410     0.14600
H851        H  0.41369848  0.91432772  0.08396960     0.00300
H852        H  0.38254696  0.79895814  0.11663916     0.14900
H853        H  0.38111466  0.88117836  0.19330934     0.14700
C854        C  0.14544288  0.85485650  0.14216156     0.86500
C855        C  0.11921668  0.83101952  0.11724345    -0.53700
C856        C  0.09649235  0.85278217  0.09539515     0.09400
C857        C  0.10211699  0.89622739  0.10078672     0.20400
C858        C  0.16799275  0.88125838  0.11631870    -0.54500
C859        C  0.14514524  0.90307416  0.09467060     0.09500
C860        C  0.11854183  0.88153982  0.16328140    -0.54000
C861        C  0.09592569  0.90337333  0.14165831     0.10100
H862        H  0.11878851  0.79998964  0.11679695     0.14600
H863        H  0.08350076  0.91401683  0.08315274     0.00300
H864        H  0.19895852  0.88287511  0.11540416     0.14900
H865        H  0.11747261  0.88301105  0.19266392     0.14700
N866        N  0.05853971  0.84081582  0.00255045    -0.36600
N867        N  0.49986003  0.83733204  0.05817705    -0.57200
N868        N  0.44080971  0.84152200  0.00299212    -0.36600
N869        N  0.49950009  0.83717960  0.44746487    -0.57200
C870        C  0.08044588  0.83377998  0.03194574     0.27000
C871        C  0.08028554  0.83429194  0.47295296     0.27000
C872        C  0.41925567  0.83411168  0.03251963     0.27000
C873        C  0.41904804  0.83406439  0.47363063     0.27000
C874        C  0.03077190  0.83098321  0.07913595     0.35600
C875        C  0.46904321  0.83150083  0.07939922     0.35600
C876        C  0.03033314  0.83555154  0.42548162     0.35600
C877        C  0.46847706  0.83541546  0.42575043     0.35600
C878        C  0.11627573  0.82193081  0.02100807    -0.21900
C879        C  0.11616547  0.82220843  0.48359241    -0.21900
C880        C  0.38371051  0.82113334  0.02192646    -0.21900
C881        C  0.38358064  0.82107340  0.48454533    -0.21900
C882        C  0.01963955  0.81841169  0.11294876    -0.22900
C883        C  0.48027461  0.81869891  0.11310327    -0.22900
C884        C  0.01889987  0.83001878  0.39012672    -0.22900
C885        C  0.47959738  0.82987994  0.39030802    -0.22900
C886        C  0.06879923  0.83728208  0.06833367    -0.18300
C887        C  0.06869079  0.83929889  0.43668424    -0.18300
C888        C  0.43023196  0.83898790  0.43730623    -0.18300
C889        C  0.43102920  0.83809265  0.06874799    -0.18300
H890        H  0.13954304  0.81279868  0.03825334     0.14600
H891        H  0.13939406  0.81343564  0.46613711     0.14600
H892        H  0.36086314  0.81140183  0.03938386     0.14600
H893        H  0.36053063  0.81143094  0.46729173     0.14600
H894        H  0.03805192  0.80899324  0.13472254     0.12900
H895        H  0.46193130  0.80942723  0.13498150     0.12900
H896        H  0.03718421  0.82505322  0.36700511     0.12900
H897        H  0.46112183  0.82473153  0.36736622     0.12900
H898        H  0.03111599  0.85183972  0.00270744     0.26200
H899        H  0.46793835  0.85333467  0.00290186     0.26200
C900        C  0.14252234  0.64756533  0.14258516     0.86500
C901        C  0.16607483  0.62179848  0.11695648    -0.53700
C902        C  0.14399972  0.59904631  0.09534995     0.09400
C903        C  0.10073580  0.60433934  0.10151589     0.20400
C904        C  0.11544747  0.67018524  0.11747758    -0.54500
C905        C  0.09346609  0.64749373  0.09590863     0.09500
C906        C  0.11664591  0.62008449  0.16391022    -0.54000
C907        C  0.09486943  0.59727629  0.14243900     0.10100
H908        H  0.19709065  0.62132816  0.11620804     0.14600
H909        H  0.08272868  0.58578953  0.08402099     0.00300
H910        H  0.11397522  0.70116427  0.11656178     0.14900
H911        H  0.11543305  0.61898405  0.19330456     0.14700
N912        N  0.43946670  0.99992430  0.15210324    -0.36600
N913        N  0.49859202  0.94208085  0.15685144    -0.57200
N914        N  0.05705029  0.50020987  0.15222571    -0.36600
N915        N  0.49791729  0.55805295  0.15685338    -0.57200
C916        C  0.41890047  0.96892495  0.16174055     0.27000
C917        C  0.41853538  0.53085954  0.16123384     0.27000
C918        C  0.07798661  0.96927009  0.16134460     0.27000
C919        C  0.07761365  0.53121545  0.16184610     0.27000
C920        C  0.46796160  0.91909281  0.16045789     0.35600
C921        C  0.02937342  0.91917886  0.15989967     0.35600
C922        C  0.46712990  0.58096287  0.15979060     0.35600
C923        C  0.02853900  0.58105155  0.16045372     0.35600
C924        C  0.38522500  0.98013574  0.17810218    -0.21900
C925        C  0.38500636  0.51955799  0.17780206    -0.21900
C926        C  0.11152290  0.98057639  0.17789444    -0.21900
C927        C  0.11129853  0.52000309  0.17819195    -0.21900
C928        C  0.47919654  0.88235850  0.16867772    -0.22900
C929        C  0.01843530  0.88241683  0.16832101    -0.22900
C930        C  0.47804940  0.61774693  0.16813537    -0.22900
C931        C  0.01728565  0.61780842  0.16855539    -0.22900
C932        C  0.42998747  0.93084911  0.15633887    -0.18300
C933        C  0.42928146  0.56895420  0.15534490    -0.18300
C934        C  0.06652330  0.56929470  0.15641637    -0.18300
C935        C  0.06723098  0.93116994  0.15546426    -0.18300
H936        H  0.36364256  0.96177542  0.18984559     0.14600
H937        H  0.36324103  0.53786587  0.18930632     0.14600
H938        H  0.13329948  0.96227015  0.18938330     0.14600
H939        H  0.13289017  0.53836411  0.18991363     0.14600
H940        H  0.46087763  0.85863873  0.17575969     0.12900
H941        H  0.03696751  0.85878654  0.17515380     0.12900
H942        H  0.45950285  0.64138987  0.17488799     0.12900
H943        H  0.03559064  0.64154797  0.17560377     0.12900
H944        H  0.46519308  0.99993767  0.13800900     0.26200
H945        H  0.03132094  0.50019644  0.13814259     0.26200
N946        N  0.15666358  0.94261482  0.00256600    -0.36600
N947        N  0.16071024  0.50163433  0.44733108    -0.57200
N948        N  0.15744743  0.56033451  0.00293945    -0.36600
N949        N  0.16118207  0.50134485  0.05808152    -0.57200
C950        C  0.16395184  0.92102405  0.47303450     0.27000
C951        C  0.16408635  0.92084651  0.03193413     0.27000
C952        C  0.16428134  0.58225837  0.47351334     0.27000
C953        C  0.16386942  0.58214614  0.03250463     0.27000
C954        C  0.16655427  0.97081555  0.42612690     0.35600
C955        C  0.16707365  0.53253380  0.42635935     0.35600
C956        C  0.16300849  0.97032329  0.07980264     0.35600
C957        C  0.16288011  0.53220510  0.08002893     0.35600
C958        C  0.17680387  0.88543314  0.48363771    -0.21900
C959        C  0.17691047  0.88531895  0.02101999    -0.21900
C960        C  0.17589770  0.61818080  0.48440117    -0.21900
C961        C  0.17567771  0.61810398  0.02181379    -0.21900
C962        C  0.17933695  0.98203199  0.39241226    -0.22900
C963        C  0.17962951  0.52139241  0.39254855    -0.22900
C964        C  0.16866070  0.98147098  0.11522420    -0.22900
C965        C  0.16852491  0.52078708  0.11537869    -0.22900
C966        C  0.16000500  0.93280628  0.43679282    -0.18300
C967        C  0.15929623  0.93207004  0.06826815    -0.18300
C968        C  0.15900756  0.57056024  0.06879334    -0.18300
C969        C  0.16080434  0.57056211  0.43713825    -0.18300
H970        H  0.18643900  0.86254520  0.46618453     0.14600
H971        H  0.18648891  0.86223829  0.03827478     0.14600
H972        H  0.18485761  0.64149086  0.46712246     0.14600
H973        H  0.18432263  0.64140758  0.03923452     0.14600
H974        H  0.18860987  0.96368010  0.37054496     0.12900
H975        H  0.18905776  0.53979633  0.37076960     0.12900
H976        H  0.17383301  0.96300918  0.13817669     0.12900
H977        H  0.17351428  0.53908484  0.13848554     0.12900
H978        H  0.14495570  0.96978533  0.00266581     0.26200
H979        H  0.14661578  0.53283805  0.00282847     0.26200
N980        N  0.43794387  0.65933949  0.00250306    -0.36600
N981        N  0.49661755  0.66280430  0.05813154    -0.57200
N982        N  0.05566682  0.65849173  0.00293977    -0.36600
N983        N  0.49694456  0.66285924  0.44740569    -0.57200
C984        C  0.41599978  0.66625220  0.03189337     0.27000
C985        C  0.41614383  0.66566721  0.47290893     0.27000
C986        C  0.07721054  0.66596989  0.03246010     0.27000
C987        C  0.07739620  0.66600358  0.47356134     0.27000
C988        C  0.46569667  0.66922368  0.07906368     0.35600
C989        C  0.02743285  0.66866684  0.07934259     0.35600
C990        C  0.46610552  0.66446551  0.42543051     0.35600
C991        C  0.02796087  0.66462923  0.42568532     0.35600
C992        C  0.38008161  0.67782526  0.02095628    -0.21900
C993        C  0.38018209  0.67750436  0.48354528    -0.21900
C994        C  0.11271668  0.67903974  0.02184272    -0.21900
C995        C  0.11283224  0.67909128  0.48445889    -0.21900
C996        C  0.47682733  0.68187141  0.11284922    -0.22900
C997        C  0.01619604  0.68155601  0.11301537    -0.22900
C998        C  0.47753106  0.66998779  0.39006958    -0.22900
C999        C  0.01683361  0.67014004  0.39024057    -0.22900
C1000       C  0.42766977  0.66285652  0.06827781    -0.18300
C1001       C  0.42775107  0.66068382  0.43664600    -0.18300
C1002       C  0.06620428  0.66107005  0.43723555    -0.18300
C1003       C  0.06544429  0.66201734  0.06870282    -0.18300
H1004       H  0.35675868  0.68681791  0.03819917     0.14600
H1005       H  0.35689106  0.68609869  0.46608797     0.14600
H1006       H  0.13554329  0.68884282  0.03928479     0.14600
H1007       H  0.13585018  0.68879558  0.46719193     0.14600
H1008       H  0.45841234  0.69133390  0.13460484     0.12900
H1009       H  0.03453637  0.69085077  0.13488337     0.12900
H1010       H  0.45924142  0.67493383  0.36694956     0.12900
H1011       H  0.03530379  0.67527486  0.36728827     0.12900
H1012       H  0.46544066  0.64851686  0.00266831     0.26200
H1013       H  0.02856441  0.64661357  0.00286391     0.26200
C1014       C  0.35105640  0.64525079  0.14212253     0.86500
C1015       C  0.37727447  0.66909405  0.11720059    -0.53700
C1016       C  0.39999045  0.64733852  0.09534345     0.09400
C1017       C  0.39434315  0.60388907  0.10070517     0.20400
C1018       C  0.32848217  0.61886259  0.11628828    -0.54500
C1019       C  0.35130388  0.59704374  0.09461876     0.09500
C1020       C  0.37796470  0.61855356  0.16321520    -0.54000
C1021       C  0.40056356  0.59673174  0.14156760     0.10100
H1022       H  0.37771232  0.70012398  0.11676463     0.14600
H1023       H  0.41294644  0.58610571  0.08305492     0.00300
H1024       H  0.29751577  0.61724306  0.11540999     0.14900
H1025       H  0.37905890  0.61707217  0.19259642     0.14700
N1026       N  0.33971930  0.55745836  0.00256625    -0.36600
N1027       N  0.33556727  0.99841123  0.44735703    -0.57200
N1028       N  0.33890261  0.93972674  0.00296334    -0.36600
N1029       N  0.33519213  0.99874050  0.05808316    -0.57200
C1030       C  0.33229665  0.57900793  0.47303455     0.27000
C1031       C  0.33221704  0.57920594  0.03192880     0.27000
C1032       C  0.33203630  0.91779738  0.47355143     0.27000
C1033       C  0.33247393  0.91792661  0.03254053     0.27000
C1034       C  0.32972214  0.52922937  0.42614617     0.35600
C1035       C  0.32921481  0.96750838  0.42639008     0.35600
C1036       C  0.33341277  0.52976340  0.07980465     0.35600
C1037       C  0.33351389  0.96787976  0.08004014     0.35600
C1038       C  0.31926077  0.61453403  0.48362939    -0.21900
C1039       C  0.31919035  0.61466110  0.02101288    -0.21900
C1040       C  0.32038446  0.88189044  0.48445939    -0.21900
C1041       C  0.32062087  0.88197765  0.02187284    -0.21900
C1042       C  0.31692915  0.51801175  0.39243884    -0.22900
C1043       C  0.31664215  0.97864880  0.39258303    -0.22900
C1044       C  0.32779228  0.51861759  0.11523176    -0.22900
C1045       C  0.32791070  0.97930063  0.11539244    -0.22900
C1046       C  0.33629420  0.56723584  0.43680122    -0.18300
C1047       C  0.33711274  0.56801743  0.06825697    -0.18300
C1048       C  0.33738265  0.92952083  0.06881707    -0.18300
C1049       C  0.33552294  0.92948116  0.43717311    -0.18300
H1050       H  0.30949660  0.63736736  0.46617216     0.14600
H1051       H  0.30951462  0.63769924  0.03826715     0.14600
H1052       H  0.31139655  0.85858606  0.46719283     0.14600
H1053       H  0.31196216  0.85868818  0.03931002     0.14600
H1054       H  0.30765702  0.53636422  0.37056829     0.12900
H1055       H  0.30721889  0.96024249  0.37080896     0.12900
H1056       H  0.32264544  0.53708268  0.13818295     0.12900
H1057       H  0.32294097  0.96100277  0.13850760     0.12900
H1058       H  0.35156374  0.53034144  0.00266328     0.26200
H1059       H  0.34975964  0.96721362  0.00283727     0.26200
C1060       C  0.16594100  0.67210459  0.66731728     0.42500
N1061       N  0.20229438  0.68359475  0.71290465     0.01400
C1062       C  0.20458841  0.84579041  0.81955837    -0.06500
H1063       H  0.22255589  0.86913711  0.67883448     0.06800
C1064       C  0.34404058  0.79370774  0.68602041    -0.06900
Co1065     Co  0.17842059  0.75378152  0.75296155     0.74200
N1066       N  0.20968415  0.82084744  0.71298105    -0.26100
Co1067     Co  0.25200333  0.81988396  0.75257647     0.74100
C1068       C  0.33060666  0.82802072  0.66739262     0.42600
N1069       N  0.31506452  0.70420168  0.71314568     0.01000
N1070       N  0.29424005  0.81649408  0.71295818     0.01100
N1071       N  0.15707933  0.80215414  0.81911993    -0.46900
H1072       H  0.12797035  0.72417387  0.68016722     0.06800
N1073       N  0.18147465  0.79588043  0.71314557     0.01400
N1074       N  0.29408139  0.81680805  0.79241308     0.01100
C1075       C  0.32973165  0.82828675  0.83851968     0.42700
N1076       N  0.28684680  0.67924335  0.71296928    -0.25500
C1077       C  0.15343773  0.70640246  0.82035643    -0.06400
N1078       N  0.19612900  0.65888304  0.68637780    -0.46600
N1079       N  0.30005413  0.84169252  0.81884047    -0.46800
C1080       C  0.16672293  0.67173080  0.83845014     0.42500
N1081       N  0.18180793  0.79599838  0.79260389     0.01300
N1082       N  0.28676298  0.67877575  0.79212963    -0.25500
N1083       N  0.17703017  0.71152546  0.71337223    -0.26000
N1084       N  0.31468847  0.70404605  0.79260137     0.01000
H1085       H  0.27412243  0.62970105  0.82533023     0.06900
H1086       H  0.36727418  0.77566272  0.82676293     0.06900
N1087       N  0.20972932  0.82127342  0.79214794    -0.26100
N1088       N  0.31951093  0.78856847  0.71342168    -0.25700
N1089       N  0.20241154  0.68323034  0.79236865     0.01400
C1090       C  0.16994237  0.83157260  0.66707736     0.42700
C1091       C  0.29191483  0.65522225  0.68515063    -0.06900
N1092       N  0.31903455  0.78858757  0.79258285    -0.25700
H1093       H  0.36859103  0.77595415  0.68022941     0.06900
N1094       N  0.15656845  0.80186488  0.68673838    -0.46900
H1095       H  0.27395479  0.63098202  0.67880915     0.06900
C1096       C  0.32617819  0.66768696  0.83818387     0.42600
C1097       C  0.15251443  0.70641140  0.68595763    -0.06400
Co1098     Co  0.24451111  0.68018215  0.75254502     0.73800
N1099       N  0.33997215  0.69822103  0.68673528    -0.46600
C1100       C  0.17027736  0.83234670  0.83818690     0.42800
N1101       N  0.19641325  0.65832886  0.81878333    -0.46600
Co1102     Co  0.31810276  0.74628385  0.75298358     0.73900
C1103       C  0.34304042  0.79362993  0.82041787    -0.06900
C1104       C  0.20460724  0.84488410  0.68516901    -0.06500
N1105       N  0.17746485  0.71145556  0.79253803    -0.26000
N1106       N  0.30040803  0.84122420  0.68644418    -0.46800
H1107       H  0.22233660  0.87034397  0.82535501     0.06900
C1108       C  0.29187951  0.65425182  0.81954071    -0.06900
Cl1109     Cl  0.24826009  0.75003300  0.75276357    -0.49900
C1110       C  0.32658365  0.66852962  0.66706405     0.42600
H1111       H  0.12920319  0.72437170  0.82669260     0.06800
N1112       N  0.33939743  0.69788102  0.81912833    -0.46600
C1113       C  0.35304046  0.85278240  0.86340824     0.86500
C1114       C  0.37939072  0.83024492  0.88930391    -0.53700
C1115       C  0.40121482  0.85311277  0.91092508     0.09400
C1116       C  0.39443951  0.89613879  0.90472007     0.20400
C1117       C  0.32922582  0.87908105  0.88827144    -0.54500
C1118       C  0.35100467  0.90181324  0.91008968     0.09500
C1119       C  0.37977160  0.87960844  0.84225101    -0.54000
C1120       C  0.40161536  0.90224699  0.86383706     0.10100
H1121       H  0.38098159  0.79927701  0.89025779     0.14600
H1122       H  0.41223738  0.91476940  0.92233015     0.00300
H1123       H  0.29819873  0.87952957  0.88872666     0.14900
H1124       H  0.38124267  0.88063478  0.81286683     0.14700
C1125       C  0.35072493  0.64425831  0.86288894     0.86500
C1126       C  0.37814606  0.61834656  0.84153986    -0.53700
C1127       C  0.40095620  0.59654457  0.86298707     0.09400
C1128       C  0.39395635  0.60243681  0.90392156     0.20400
C1129       C  0.32811077  0.61722356  0.88803377    -0.54500
C1130       C  0.35080885  0.59523693  0.90958914     0.09500
C1131       C  0.37653984  0.66779335  0.88848113    -0.54000
C1132       C  0.39928012  0.64569638  0.91007924     0.10100
H1133       H  0.37921537  0.61714139  0.81214463     0.14600
H1134       H  0.41250639  0.58441591  0.92140673     0.00300
H1135       H  0.29713327  0.61577737  0.88898343     0.14900
H1136       H  0.37702997  0.69881068  0.88923261     0.14700
C1137       C  0.14570447  0.85576431  0.86288901     0.86500
C1138       C  0.16828397  0.88283423  0.88802397    -0.53700
C1139       C  0.14555065  0.90480118  0.90956823     0.09400
C1140       C  0.10241946  0.89755833  0.90389765     0.20400
C1141       C  0.11991048  0.83221296  0.88850093    -0.54500
C1142       C  0.09715166  0.85429485  0.91009709     0.09500
C1143       C  0.11826425  0.88164733  0.84152593    -0.54000
C1144       C  0.09543651  0.90344596  0.86295704     0.10100
H1145       H  0.19925940  0.88430740  0.88898436     0.14600
H1146       H  0.08384526  0.91556740  0.92136910     0.00300
H1147       H  0.11945461  0.80119554  0.88927043     0.14900
H1148       H  0.11720961  0.88285215  0.81213002     0.14700
C1149       C  0.14338925  0.64723951  0.86333023     0.86500
C1150       C  0.11703570  0.66979102  0.88921135    -0.53700
C1151       C  0.09519941  0.64693475  0.91083899     0.09400
C1152       C  0.10194446  0.60390596  0.90463640     0.20400
C1153       C  0.16717592  0.62093885  0.88821558    -0.54500
C1154       C  0.14536820  0.59822520  0.91003348     0.09500
C1155       C  0.11666214  0.62041620  0.84216807    -0.54000
C1156       C  0.09479710  0.59778228  0.86374911     0.10100
H1157       H  0.11546590  0.70075997  0.89016455     0.14600
H1158       H  0.08412738  0.58528588  0.92224466     0.00300
H1159       H  0.19820284  0.62048051  0.88869081     0.14900
H1160       H  0.11521405  0.61938570  0.81278363     0.14700
N1161       N  0.49839386  0.94122678  0.85312632    -0.36600
N1162       N  0.05621229  0.50040149  0.84841307    -0.57200
N1163       N  0.49802288  0.55878902  0.85311854    -0.36600
N1164       N  0.44020287  0.49961056  0.84850706    -0.57200
C1165       C  0.02940729  0.92069328  0.84347391     0.27000
C1166       C  0.46746749  0.92026183  0.84402506     0.27000
C1167       C  0.02893745  0.57975340  0.84396997     0.27000
C1168       C  0.46699402  0.57931260  0.84348462     0.27000
C1169       C  0.07921613  0.96978528  0.84478243     0.35600
C1170       C  0.07908462  0.53121205  0.84538922     0.35600
C1171       C  0.41732706  0.96880411  0.84551195     0.35600
C1172       C  0.41719129  0.53021835  0.84488549     0.35600
C1173       C  0.01821422  0.88701286  0.82710767    -0.21900
C1174       C  0.47879083  0.88675265  0.82743339    -0.21900
C1175       C  0.01759069  0.61325290  0.82736958    -0.21900
C1176       C  0.47816607  0.61298476  0.82708132    -0.21900
C1177       C  0.11593809  0.98106215  0.83655855    -0.22900
C1178       C  0.11585124  0.52031073  0.83694618    -0.22900
C1179       C  0.38055129  0.97969841  0.83710489    -0.22900
C1180       C  0.38046157  0.51894121  0.83670445    -0.22900
C1181       C  0.06747733  0.93179454  0.84891461    -0.18300
C1182       C  0.42936559  0.93096524  0.84997368    -0.18300
C1183       C  0.42892863  0.56820588  0.84896812    -0.18300
C1184       C  0.06704939  0.56905589  0.84987943    -0.18300
H1185       H  0.03658651  0.86543723  0.81537337     0.14600
H1186       H  0.46049811  0.86496035  0.81595390     0.14300
H1187       H  0.03586917  0.63504326  0.81585906     0.14600
H1188       H  0.45977943  0.63454968  0.81534775     0.14600
H1189       H  0.13967290  0.96276745  0.82947037     0.12900
H1190       H  0.13946858  0.53887122  0.83013572     0.12900
H1191       H  0.35693420  0.96113439  0.83030979     0.12900
H1192       H  0.35672362  0.53723321  0.82961910     0.12900
H1193       H  0.49837140  0.96694494  0.86723135     0.26200
H1194       H  0.49806748  0.53307788  0.86724085     0.26200
C1195       C  0.35399106  0.85255895  0.64263506     0.86500
C1196       C  0.33040167  0.87829687  0.61701031    -0.53700
C1197       C  0.35244186  0.90104801  0.59536674     0.09400
C1198       C  0.39571717  0.89578027  0.60149710     0.20400
C1199       C  0.38105081  0.82993695  0.61752670    -0.54500
C1200       C  0.40300308  0.85262647  0.59592870     0.09500
C1201       C  0.37987577  0.88006117  0.66391727    -0.54000
C1202       C  0.40162877  0.90286098  0.64240820     0.10100
H1203       H  0.29938486  0.87875213  0.61629351     0.14600
H1204       H  0.41369846  0.91432763  0.58396983     0.00300
H1205       H  0.38254721  0.79895799  0.61663949     0.14900
H1206       H  0.38111471  0.88117833  0.69330944     0.14700
C1207       C  0.14544288  0.85485664  0.64216175     0.86500
C1208       C  0.11921675  0.83101962  0.61724357    -0.53700
C1209       C  0.09649236  0.85278220  0.59539518     0.09400
C1210       C  0.10211694  0.89622741  0.60078672     0.20400
C1211       C  0.16799271  0.88125852  0.61631870    -0.54500
C1212       C  0.14514518  0.90307429  0.59467066     0.09500
C1213       C  0.11854183  0.88153975  0.66328205    -0.54000
C1214       C  0.09592575  0.90337324  0.64165857     0.10100
H1215       H  0.11878911  0.79998978  0.61679689     0.14600
H1216       H  0.08350060  0.91401661  0.58315274     0.00300
H1217       H  0.19895844  0.88287529  0.61540419     0.14900
H1218       H  0.11747312  0.88301109  0.69266431     0.14700
N1219       N  0.05853964  0.84081586  0.50255027    -0.36600
N1220       N  0.49986003  0.83733212  0.55817680    -0.57200
N1221       N  0.44080967  0.84152203  0.50299223    -0.36600
N1222       N  0.49950023  0.83717962  0.94746500    -0.57200
C1223       C  0.08044554  0.83378017  0.53194558     0.27000
C1224       C  0.08028581  0.83429183  0.97295294     0.27000
C1225       C  0.41925559  0.83411161  0.53251962     0.27000
C1226       C  0.41904812  0.83406431  0.97363059     0.27000
C1227       C  0.03077193  0.83098314  0.57913586     0.35600
C1228       C  0.46904324  0.83150089  0.57939902     0.35600
C1229       C  0.03033319  0.83555169  0.92548169     0.35600
C1230       C  0.46847727  0.83541555  0.92575061     0.35600
C1231       C  0.11627533  0.82193088  0.52100805    -0.21900
C1232       C  0.11616574  0.82220836  0.98359230    -0.21900
C1233       C  0.38371024  0.82113325  0.52192656    -0.21900
C1234       C  0.38358081  0.82107353  0.98454538    -0.21900
C1235       C  0.01963956  0.81841172  0.61294878    -0.22900
C1236       C  0.48027471  0.81869912  0.61310300    -0.22900
C1237       C  0.01889998  0.83001877  0.89012681    -0.22900
C1238       C  0.47959772  0.82988013  0.89030846    -0.22900
C1239       C  0.06879917  0.83728217  0.56833352    -0.18300
C1240       C  0.06869089  0.83929887  0.93668426    -0.18300
C1241       C  0.43023209  0.83898786  0.93730621    -0.18300
C1242       C  0.43102919  0.83809263  0.56874797    -0.18300
H1243       H  0.13954255  0.81279868  0.53825352     0.14600
H1244       H  0.13939409  0.81343560  0.96613673     0.14600
H1245       H  0.36086318  0.81140136  0.53938395     0.14600
H1246       H  0.36053061  0.81143079  0.96729195     0.14600
H1247       H  0.03805189  0.80899322  0.63472258     0.12900
H1248       H  0.46193161  0.80942737  0.63498159     0.12900
H1249       H  0.03718408  0.82505324  0.86700501     0.12900
H1250       H  0.46112185  0.82473190  0.86736651     0.12900
H1251       H  0.03111559  0.85183982  0.50270716     0.26200
H1252       H  0.46793840  0.85333480  0.50290198     0.26200
C1253       C  0.14252223  0.64756538  0.64258507     0.86500
C1254       C  0.16607462  0.62179845  0.61695643    -0.53700
C1255       C  0.14399958  0.59904620  0.59534989     0.09400
C1256       C  0.10073557  0.60433926  0.60151569     0.20400
C1257       C  0.11544734  0.67018528  0.61747750    -0.54500
C1258       C  0.09346592  0.64749368  0.59590873     0.09500
C1259       C  0.11664579  0.62008446  0.66391012    -0.54000
C1260       C  0.09486923  0.59727633  0.64243884     0.10100
H1261       H  0.19709045  0.62132805  0.61620813     0.14600
H1262       H  0.08272839  0.58578996  0.58402066     0.00300
H1263       H  0.11397481  0.70116426  0.61656145     0.14900
H1264       H  0.11543244  0.61898421  0.69330442     0.14700
N1265       N  0.43946669  0.99992422  0.65210311    -0.36600
N1266       N  0.49859228  0.94208079  0.65685138    -0.57200
N1267       N  0.05705020  0.50020986  0.65222586    -0.36600
N1268       N  0.49791712  0.55805298  0.65685338    -0.57200
C1269       C  0.41890048  0.96892487  0.66174050     0.27000
C1270       C  0.41853501  0.53085978  0.66123395     0.27000
C1271       C  0.07798656  0.96927011  0.66134453     0.27000
C1272       C  0.07761356  0.53121551  0.66184607     0.27000
C1273       C  0.46796189  0.91909287  0.66045770     0.35600
C1274       C  0.02937351  0.91917879  0.65989972     0.35600
C1275       C  0.46712968  0.58096315  0.65979060     0.35600
C1276       C  0.02853872  0.58105147  0.66045369     0.35600
C1277       C  0.38522508  0.98013569  0.67810226    -0.21900
C1278       C  0.38500573  0.51955866  0.67780250    -0.21900
C1279       C  0.11152274  0.98057669  0.67789428    -0.21900
C1280       C  0.11129852  0.52000330  0.67819185    -0.21900
C1281       C  0.47919718  0.88235884  0.66867758    -0.22900
C1282       C  0.01843540  0.88241675  0.66832101    -0.22900
C1283       C  0.47804881  0.61774749  0.66813568    -0.22900
C1284       C  0.01728503  0.61780822  0.66855530    -0.22900
C1285       C  0.42998758  0.93084905  0.65633879    -0.18300
C1286       C  0.42928135  0.56895431  0.65534486    -0.18300
C1287       C  0.06652309  0.56929472  0.65641622    -0.18300
C1288       C  0.06723100  0.93116989  0.65546426    -0.18300
H1289       H  0.36364258  0.96177545  0.68984574     0.14600
H1290       H  0.36324071  0.53786638  0.68930661     0.14600
H1291       H  0.13329975  0.96227078  0.68938314     0.14600
H1292       H  0.13289063  0.53836407  0.68991290     0.14600
H1293       H  0.46087753  0.85863920  0.67575926     0.12900
H1294       H  0.03696703  0.85878625  0.67515431     0.12900
H1295       H  0.45950263  0.64139035  0.67488817     0.12900
H1296       H  0.03559046  0.64154763  0.67560375     0.12900
H1297       H  0.46519294  0.99993753  0.63800872     0.26200
H1298       H  0.03132068  0.50019637  0.63814287     0.26200
N1299       N  0.15666392  0.94261460  0.50256610    -0.36600
N1300       N  0.16071036  0.50163426  0.94733109    -0.57200
N1301       N  0.15744714  0.56033482  0.50293941    -0.36600
N1302       N  0.16118185  0.50134482  0.55808145    -0.57200
C1303       C  0.16395148  0.92102466  0.97303450     0.27000
C1304       C  0.16408660  0.92084585  0.53193430     0.27000
C1305       C  0.16428137  0.58225841  0.97351345     0.27000
C1306       C  0.16386936  0.58214610  0.53250453     0.27000
C1307       C  0.16655413  0.97081582  0.92612702     0.35600
C1308       C  0.16707372  0.53253374  0.92635935     0.35600
C1309       C  0.16300857  0.97032323  0.57980265     0.35600
C1310       C  0.16287999  0.53220504  0.58002874     0.35600
C1311       C  0.17680371  0.88543388  0.98363769    -0.21900
C1312       C  0.17691077  0.88531814  0.52102023    -0.21900
C1313       C  0.17589764  0.61818090  0.98440136    -0.21900
C1314       C  0.17567770  0.61810374  0.52181349    -0.21900
C1315       C  0.17933655  0.98203263  0.89241265    -0.22900
C1316       C  0.17962958  0.52139209  0.89254853    -0.22900
C1317       C  0.16866084  0.98147104  0.61522427    -0.22900
C1318       C  0.16852483  0.52078689  0.61537832    -0.22900
C1319       C  0.16000493  0.93280658  0.93679274    -0.18300
C1320       C  0.15929627  0.93206989  0.56826821    -0.18300
C1321       C  0.15900753  0.57056020  0.56879325    -0.18300
C1322       C  0.16080447  0.57056211  0.93713828    -0.18300
H1323       H  0.18643847  0.86254553  0.96618464     0.14600
H1324       H  0.18648893  0.86223757  0.53827495     0.14600
H1325       H  0.18485697  0.64149098  0.96712239     0.14600
H1326       H  0.18432289  0.64140742  0.53923415     0.14600
H1327       H  0.18860972  0.96368046  0.87054527     0.12900
H1328       H  0.18905822  0.53979564  0.87076942     0.12900
H1329       H  0.17383317  0.96300932  0.63817674     0.12900
H1330       H  0.17351454  0.53908482  0.63848517     0.12900
H1331       H  0.14495695  0.96978505  0.50266588     0.26200
H1332       H  0.14661456  0.53283876  0.50282856     0.26200
N1333       N  0.43794366  0.65933968  0.50250302    -0.36600
N1334       N  0.49661736  0.66280418  0.55813147    -0.57200
N1335       N  0.05566664  0.65849169  0.50293989    -0.36600
N1336       N  0.49694448  0.66285919  0.94740564    -0.57200
C1337       C  0.41599940  0.66625239  0.53189333     0.27000
C1338       C  0.41614436  0.66566693  0.97290916     0.27000
C1339       C  0.07721062  0.66596990  0.53246032     0.27000
C1340       C  0.07739634  0.66600370  0.97356111     0.27000
C1341       C  0.46569643  0.66922362  0.57906360     0.35600
C1342       C  0.02743267  0.66866680  0.57934255     0.35600
C1343       C  0.46610541  0.66446553  0.92543051     0.35600
C1344       C  0.02796081  0.66462930  0.92568515     0.35600
C1345       C  0.38008150  0.67782529  0.52095601    -0.21900
C1346       C  0.38018281  0.67750407  0.98354567    -0.21900
C1347       C  0.11271703  0.67903988  0.52184336    -0.21900
C1348       C  0.11283258  0.67909158  0.98445825    -0.21900
C1349       C  0.47682702  0.68187132  0.61284904    -0.22900
C1350       C  0.01619561  0.68155593  0.61301518    -0.22900
C1351       C  0.47753081  0.66998774  0.89006959    -0.22900
C1352       C  0.01683342  0.67014018  0.89024036    -0.22900
C1353       C  0.42766954  0.66285658  0.56827777    -0.18300
C1354       C  0.42775111  0.66068383  0.93664605    -0.18300
C1355       C  0.06620418  0.66107008  0.93723543    -0.18300
C1356       C  0.06544425  0.66201732  0.56870292    -0.18300
H1357       H  0.35675885  0.68681807  0.53819931     0.14600
H1358       H  0.35689179  0.68609852  0.96608787     0.14600
H1359       H  0.13554379  0.68884228  0.53928515     0.14600
H1360       H  0.13585052  0.68879582  0.96719172     0.14600
H1361       H  0.45841233  0.69133404  0.63460475     0.12900
H1362       H  0.03453605  0.69085079  0.63488331     0.12900
H1363       H  0.45924130  0.67493390  0.86694960     0.12900
H1364       H  0.03530377  0.67527515  0.86728831     0.12900
H1365       H  0.46544001  0.64851717  0.50266839     0.26200
H1366       H  0.02856420  0.64661366  0.50286399     0.26200
C1367       C  0.35105626  0.64525085  0.64212230     0.86500
C1368       C  0.37727447  0.66909413  0.61720058    -0.53700
C1369       C  0.39999047  0.64733857  0.59534345     0.09400
C1370       C  0.39434317  0.60388908  0.60070493     0.20400
C1371       C  0.32848205  0.61886258  0.61628821    -0.54500
C1372       C  0.35130382  0.59704375  0.59461867     0.09500
C1373       C  0.37796465  0.61855365  0.66321445    -0.54000
C1374       C  0.40056354  0.59673175  0.64156720     0.10100
H1375       H  0.37771190  0.70012403  0.61676430     0.14600
H1376       H  0.41294629  0.58610583  0.58305445     0.00300
H1377       H  0.29751562  0.61724342  0.61540960     0.14900
H1378       H  0.37905832  0.61707160  0.69259593     0.14700
N1379       N  0.33971943  0.55745875  0.50256625    -0.36600
N1380       N  0.33556743  0.99841121  0.94735724    -0.57200
N1381       N  0.33890272  0.93972704  0.50296331    -0.36600
N1382       N  0.33519214  0.99874044  0.55808304    -0.57200
C1383       C  0.33229671  0.57900764  0.97303460     0.27000
C1384       C  0.33221692  0.57920614  0.53192872     0.27000
C1385       C  0.33203616  0.91779720  0.97355141     0.27000
C1386       C  0.33247398  0.91792674  0.53254051     0.27000
C1387       C  0.32972226  0.52922932  0.92614641     0.35600
C1388       C  0.32921484  0.96750840  0.92639035     0.35600
C1389       C  0.33341280  0.52976322  0.57980434     0.35600
C1390       C  0.33351400  0.96787974  0.58004011     0.35600
C1391       C  0.31926123  0.61453330  0.98362971    -0.21900
C1392       C  0.31919006  0.61466166  0.52101299    -0.21900
C1393       C  0.32038439  0.88189014  0.98445912    -0.21900
C1394       C  0.32062089  0.88197777  0.52187291    -0.21900
C1395       C  0.31692949  0.51801157  0.89243933    -0.22900
C1396       C  0.31664241  0.97864907  0.89258355    -0.22900
C1397       C  0.32779250  0.51861702  0.61523117    -0.22900
C1398       C  0.32791074  0.97930069  0.61539239    -0.22900
C1399       C  0.33629430  0.56723581  0.93680122    -0.18300
C1400       C  0.33711271  0.56801741  0.56825688    -0.18300
C1401       C  0.33738274  0.92952079  0.56881706    -0.18300
C1402       C  0.33552308  0.92948121  0.93717320    -0.18300
H1403       H  0.30949712  0.63736715  0.96617253     0.14600
H1404       H  0.30951418  0.63769916  0.53826760     0.14600
H1405       H  0.31139671  0.85858588  0.96719251     0.14600
H1406       H  0.31196216  0.85868810  0.53931001     0.14600
H1407       H  0.30765729  0.53636417  0.87056864     0.12900
H1408       H  0.30721840  0.96024289  0.87080934     0.12900
H1409       H  0.32264554  0.53708217  0.63818273     0.12900
H1410       H  0.32294142  0.96100286  0.63850776     0.12900
H1411       H  0.35156441  0.53034185  0.50266329     0.26200
H1412       H  0.34975979  0.96721396  0.50283715     0.26200
C1413       C  0.66594104  0.17210458  0.16731740     0.42500
N1414       N  0.70229444  0.18359466  0.21290470     0.01400
C1415       C  0.70458838  0.34579029  0.31955829    -0.06500
H1416       H  0.72255605  0.36913693  0.17883414     0.06800
C1417       C  0.84404088  0.29370742  0.18602041    -0.06900
Co1418     Co  0.67842058  0.25378154  0.25296155     0.74200
N1419       N  0.70968413  0.32084758  0.21298111    -0.26100
Co1420     Co  0.75200324  0.31988393  0.25257654     0.74100
C1421       C  0.83060681  0.32802066  0.16739273     0.42600
N1422       N  0.81506443  0.20420169  0.21314573     0.01000
N1423       N  0.79424008  0.31649400  0.21295820     0.01100
N1424       N  0.65707922  0.30215413  0.31912003    -0.46900
H1425       H  0.62797030  0.22417381  0.18016767     0.06800
N1426       N  0.68147471  0.29588042  0.21314554     0.01400
N1427       N  0.79408123  0.31680798  0.29241319     0.01100
C1428       C  0.82973167  0.32828676  0.33851971     0.42700
N1429       N  0.78684681  0.17924331  0.21296931    -0.25500
C1430       C  0.65343769  0.20640256  0.32035663    -0.06400
N1431       N  0.69612912  0.15888305  0.18637780    -0.46600
N1432       N  0.80005409  0.34169250  0.31884051    -0.46800
C1433       C  0.66672298  0.17173078  0.33845013     0.42500
N1434       N  0.68180778  0.29599836  0.29260392     0.01300
N1435       N  0.78676293  0.17877571  0.29212965    -0.25500
N1436       N  0.67703030  0.21152543  0.21337230    -0.26000
N1437       N  0.81468842  0.20404606  0.29260142     0.01000
H1438       H  0.77412251  0.12970083  0.32533004     0.06900
H1439       H  0.86727427  0.27566291  0.32676278     0.06900
N1440       N  0.70972920  0.32127333  0.29214795    -0.26100
N1441       N  0.81951100  0.28856835  0.21342169    -0.25700
N1442       N  0.70241153  0.18323043  0.29236871     0.01400
C1443       C  0.66994242  0.33157259  0.16707735     0.42700
C1444       C  0.79191510  0.15522245  0.18515053    -0.06900
N1445       N  0.81903442  0.28858756  0.29258288    -0.25700
H1446       H  0.86859130  0.27595403  0.18022970     0.06900
N1447       N  0.65656849  0.30186491  0.18673840    -0.46900
H1448       H  0.77395517  0.13098215  0.17880868     0.06900
C1449       C  0.82617821  0.16768687  0.33818383     0.42600
C1450       C  0.65251453  0.20641138  0.18595777    -0.06400
Co1451     Co  0.74451109  0.18018210  0.25254511     0.73800
N1452       N  0.83997220  0.19822106  0.18673537    -0.46600
C1453       C  0.67027734  0.33234669  0.33818692     0.42800
N1454       N  0.69641324  0.15832880  0.31878330    -0.46600
Co1455     Co  0.81810271  0.24628382  0.25298360     0.73900
C1456       C  0.84304043  0.29363004  0.32041779    -0.06900
C1457       C  0.70460731  0.34488416  0.18516897    -0.06500
N1458       N  0.67746477  0.21145560  0.29253812    -0.26000
N1459       N  0.80040809  0.34122416  0.18644431    -0.46800
H1460       H  0.72233702  0.37034370  0.32535471     0.06900
C1461       C  0.79187954  0.15425167  0.31954063    -0.06900
Cl1462     Cl  0.74826008  0.25003299  0.25276362    -0.49900
C1463       C  0.82658381  0.16852979  0.16706400     0.42600
H1464       H  0.62920340  0.22437198  0.32669316     0.06800
N1465       N  0.83939736  0.19788105  0.31912833    -0.46600
C1466       C  0.85304078  0.35278246  0.36340797     0.86500
C1467       C  0.87939086  0.33024498  0.38930379    -0.53700
C1468       C  0.90121487  0.35311278  0.41092504     0.09400
C1469       C  0.89443965  0.39613882  0.40472007     0.20400
C1470       C  0.82922646  0.37908109  0.38827129    -0.54500
C1471       C  0.85100492  0.40181326  0.41008969     0.09500
C1472       C  0.87977187  0.37960852  0.34225047    -0.54000
C1473       C  0.90161544  0.40224701  0.36383688     0.10100
H1474       H  0.88098108  0.29927705  0.39025825     0.14600
H1475       H  0.91223748  0.41476934  0.42233013     0.00300
H1476       H  0.79819913  0.37952966  0.38872624     0.14900
H1477       H  0.88124304  0.38063532  0.31286653     0.14700
C1478       C  0.85072500  0.14425820  0.36288885     0.86500
C1479       C  0.87814621  0.11834648  0.34153972    -0.53700
C1480       C  0.90095628  0.09654461  0.36298708     0.09400
C1481       C  0.89395639  0.10243682  0.40392165     0.20400
C1482       C  0.82811085  0.11722351  0.38803375    -0.54500
C1483       C  0.85080887  0.09523694  0.40958917     0.09500
C1484       C  0.87653980  0.16779323  0.38848112    -0.54000
C1485       C  0.89928017  0.14569638  0.41007926     0.10100
H1486       H  0.87921586  0.11714125  0.31214445     0.14600
H1487       H  0.91250639  0.08441608  0.42140694     0.00300
H1488       H  0.79713331  0.11577723  0.38898339     0.14900
H1489       H  0.87702991  0.19881063  0.38923218     0.14700
C1490       C  0.64570450  0.35576435  0.36288902     0.86500
C1491       C  0.66828398  0.38283424  0.38802406    -0.53700
C1492       C  0.64555067  0.40480116  0.40956833     0.09400
C1493       C  0.60241951  0.39755838  0.40389768     0.20400
C1494       C  0.61991052  0.33221298  0.38850100    -0.54500
C1495       C  0.59715162  0.35429491  0.41009708     0.09500
C1496       C  0.61826429  0.38164734  0.34152588    -0.54000
C1497       C  0.59543656  0.40344593  0.36295705     0.10100
H1498       H  0.69925942  0.38430718  0.38898476     0.14600
H1499       H  0.58384538  0.41556751  0.42136922     0.00300
H1500       H  0.61945464  0.30119555  0.38927061     0.14900
H1501       H  0.61720969  0.38285220  0.31212996     0.14700
C1502       C  0.64338945  0.14723948  0.36333030     0.86500
C1503       C  0.61703570  0.16979101  0.38921137    -0.53700
C1504       C  0.59519939  0.14693477  0.41083900     0.09400
C1505       C  0.60194450  0.10390605  0.40463634     0.20400
C1506       C  0.66717653  0.12093890  0.38821559    -0.54500
C1507       C  0.64536843  0.09822522  0.41003334     0.09500
C1508       C  0.61666223  0.12041621  0.34216808    -0.54000
C1509       C  0.59479705  0.09778233  0.36374907     0.10100
H1510       H  0.61546580  0.20075995  0.39016458     0.14600
H1511       H  0.58412736  0.08528598  0.42224464     0.00300
H1512       H  0.69820323  0.12048050  0.38869081     0.14900
H1513       H  0.61521415  0.11938582  0.31278366     0.14700
N1514       N  0.99839394  0.44122682  0.35312634    -0.36600
N1515       N  0.55621222  0.00040137  0.34841304    -0.57200
N1516       N  0.99802290  0.05878882  0.35311864    -0.36600
N1517       N  0.94020244  0.99961051  0.34850691    -0.57200
C1518       C  0.52940733  0.42069324  0.34347401     0.27000
C1519       C  0.96746754  0.42026191  0.34402515     0.27000
C1520       C  0.52893725  0.07975304  0.34397021     0.27000
C1521       C  0.96699408  0.07931223  0.34348469     0.27000
C1522       C  0.57921619  0.46978526  0.34478244     0.35600
C1523       C  0.57908439  0.03121189  0.34538928     0.35600
C1524       C  0.91732694  0.46880410  0.34551199     0.35600
C1525       C  0.91719089  0.03021835  0.34488551     0.35600
C1526       C  0.51821427  0.38701294  0.32710766    -0.21900
C1527       C  0.97879091  0.38675275  0.32743344    -0.21900
C1528       C  0.51759032  0.11325243  0.32736979    -0.21900
C1529       C  0.97816612  0.11298453  0.32708141    -0.21900
C1530       C  0.61593816  0.48106227  0.33655858    -0.22900
C1531       C  0.61585076  0.02031034  0.33694656    -0.22900
C1532       C  0.88055094  0.47969812  0.33710474    -0.22900
C1533       C  0.88046096  0.01894116  0.33670421    -0.22900
C1534       C  0.56747739  0.43179450  0.34891467    -0.18300
C1535       C  0.92936564  0.43096530  0.34997366    -0.18300
C1536       C  0.92892859  0.06820577  0.34896821    -0.18300
C1537       C  0.56704928  0.06905581  0.34987933    -0.18300
H1538       H  0.53658661  0.36543726  0.31537350     0.14600
H1539       H  0.96049823  0.36496043  0.31595389     0.14300
H1540       H  0.53586872  0.13504309  0.31585912     0.14600
H1541       H  0.95977949  0.13454950  0.31534783     0.14600
H1542       H  0.63967289  0.46276741  0.32947045     0.12900
H1543       H  0.63946815  0.03887138  0.33013648     0.12900
H1544       H  0.85693418  0.46113409  0.33030922     0.12900
H1545       H  0.85672334  0.03723334  0.32961918     0.12900
H1546       H  0.99837152  0.46694504  0.36723143     0.26200
H1547       H  0.99806743  0.03307738  0.36724106     0.26200
C1548       C  0.85399111  0.35255902  0.14263507     0.86500
C1549       C  0.83040164  0.37829698  0.11701040    -0.53700
C1550       C  0.85244184  0.40104809  0.09536676     0.09400
C1551       C  0.89571722  0.39578044  0.10149693     0.20400
C1552       C  0.88105084  0.32993706  0.11752665    -0.54500
C1553       C  0.90300308  0.35262659  0.09592861     0.09500
C1554       C  0.87987595  0.38006118  0.16391724    -0.54000
C1555       C  0.90162889  0.40286106  0.14240813     0.10100
H1556       H  0.79938481  0.37875271  0.11629419     0.14600
H1557       H  0.91369811  0.41432781  0.08396950     0.00300
H1558       H  0.88254701  0.29895810  0.11663902     0.14900
H1559       H  0.88111510  0.38117828  0.19330937     0.14700
C1560       C  0.64544300  0.35485654  0.14216151     0.86500
C1561       C  0.61921681  0.33101947  0.11724351    -0.53700
C1562       C  0.59649237  0.35278208  0.09539522     0.09400
C1563       C  0.60211704  0.39622729  0.10078670     0.20400
C1564       C  0.66799279  0.38125848  0.11631861    -0.54500
C1565       C  0.64514524  0.40307422  0.09467063     0.09500
C1566       C  0.61854199  0.38153975  0.16328138    -0.54000
C1567       C  0.59592578  0.40337325  0.14165831     0.10100
H1568       H  0.61878906  0.29998968  0.11679695     0.14600
H1569       H  0.58350080  0.41401656  0.08315263     0.00300
H1570       H  0.69895850  0.38287535  0.11540407     0.14900
H1571       H  0.61747329  0.38301117  0.19266391     0.14700
N1572       N  0.55853977  0.34081571  0.00255046    -0.36600
N1573       N  0.99986002  0.33733206  0.05817688    -0.57200
N1574       N  0.94080973  0.34152207  0.00299213    -0.36600
N1575       N  0.99950012  0.33717969  0.44746492    -0.57200
C1576       C  0.58044595  0.33377999  0.03194575     0.27000
C1577       C  0.58028569  0.33429194  0.47295299     0.27000
C1578       C  0.91925569  0.33411159  0.03251963     0.27000
C1579       C  0.91904801  0.33406431  0.47363068     0.27000
C1580       C  0.53077189  0.33098314  0.07913583     0.35600
C1581       C  0.96904322  0.33150087  0.07939903     0.35600
C1582       C  0.53033304  0.33555167  0.42548181     0.35600
C1583       C  0.96847713  0.33541552  0.42575047     0.35600
C1584       C  0.61627573  0.32193085  0.02100810    -0.21900
C1585       C  0.61616544  0.32220841  0.48359254    -0.21900
C1586       C  0.88371040  0.32113323  0.02192661    -0.21900
C1587       C  0.88358052  0.32107334  0.48454543    -0.21900
C1588       C  0.51963928  0.31841184  0.11294856    -0.22900
C1589       C  0.98027465  0.31869918  0.11310297    -0.22900
C1590       C  0.51889960  0.33001891  0.39012703    -0.22900
C1591       C  0.97959744  0.32988001  0.39030809    -0.22900
C1592       C  0.56879928  0.33728204  0.06833366    -0.18300
C1593       C  0.56869083  0.33929899  0.43668425    -0.18300
C1594       C  0.93023201  0.33898780  0.43730624    -0.18300
C1595       C  0.93102918  0.33809268  0.06874792    -0.18300
H1596       H  0.63954291  0.31279860  0.03825338     0.14600
H1597       H  0.63939394  0.31343545  0.46613700     0.14600
H1598       H  0.86086317  0.31140136  0.03938391     0.14600
H1599       H  0.86053066  0.31143066  0.46729169     0.14600
H1600       H  0.53805154  0.30899325  0.13472254     0.12900
H1601       H  0.96193150  0.30942749  0.13498155     0.12900
H1602       H  0.53718380  0.32505326  0.36700513     0.12900
H1603       H  0.96112183  0.32473179  0.36736623     0.12900
H1604       H  0.53111598  0.35183946  0.00270748     0.26200
H1605       H  0.96793839  0.35333493  0.00290183     0.26200
C1606       C  0.64252231  0.14756542  0.14258521     0.86500
C1607       C  0.66607475  0.12179854  0.11695649    -0.53700
C1608       C  0.64399972  0.09904634  0.09534997     0.09400
C1609       C  0.60073594  0.10433956  0.10151596     0.20400
C1610       C  0.61544742  0.17018534  0.11747760    -0.54500
C1611       C  0.59346614  0.14749382  0.09590867     0.09500
C1612       C  0.61664592  0.12008448  0.16391030    -0.54000
C1613       C  0.59486946  0.09727636  0.14243901     0.10100
H1614       H  0.69709052  0.12132824  0.11620806     0.14600
H1615       H  0.58272877  0.08578991  0.08402084     0.00300
H1616       H  0.61397479  0.20116431  0.11656183     0.14900
H1617       H  0.61543258  0.11898414  0.19330460     0.14700
N1618       N  0.93946682  0.49992429  0.15210313    -0.36600
N1619       N  0.99859228  0.44208093  0.15685142    -0.57200
N1620       N  0.55705038  0.00020986  0.15222581    -0.36600
N1621       N  0.99791716  0.05805300  0.15685339    -0.57200
C1622       C  0.91890051  0.46892490  0.16174048     0.27000
C1623       C  0.91853493  0.03085972  0.16123409     0.27000
C1624       C  0.57798692  0.46926996  0.16134479     0.27000
C1625       C  0.57761376  0.03121552  0.16184616     0.27000
C1626       C  0.96796190  0.41909304  0.16045780     0.35600
C1627       C  0.52937361  0.41917876  0.15989974     0.35600
C1628       C  0.96712977  0.08096305  0.15979067     0.35600
C1629       C  0.52853882  0.08105163  0.16045376     0.35600
C1630       C  0.88522507  0.48013564  0.17810218    -0.21900
C1631       C  0.88500585  0.01955826  0.17780227    -0.21900
C1632       C  0.61152308  0.48057633  0.17789452    -0.21900
C1633       C  0.61129882  0.02000328  0.17819210    -0.21900
C1634       C  0.97919722  0.38235908  0.16867749    -0.22900
C1635       C  0.51843571  0.38241659  0.16832114    -0.22900
C1636       C  0.97804911  0.11774734  0.16813551    -0.22900
C1637       C  0.51728527  0.11780862  0.16855535    -0.22900
C1638       C  0.92998761  0.43084913  0.15633882    -0.18300
C1639       C  0.92928133  0.06895426  0.15534491    -0.18300
C1640       C  0.56652322  0.06929475  0.15641625    -0.18300
C1641       C  0.56723116  0.43116986  0.15546425    -0.18300
H1642       H  0.86364252  0.46177551  0.18984567     0.14600
H1643       H  0.86324073  0.03786617  0.18930639     0.14600
H1644       H  0.63329968  0.46227022  0.18938338     0.14600
H1645       H  0.63289052  0.03836407  0.18991343     0.14600
H1646       H  0.96087798  0.35863918  0.17575962     0.12900
H1647       H  0.53696761  0.35878630  0.17515383     0.12900
H1648       H  0.95950285  0.14139033  0.17488801     0.12900
H1649       H  0.53559047  0.14154794  0.17560370     0.12900
H1650       H  0.96519310  0.49993768  0.13800888     0.26200
H1651       H  0.53132101  0.00019634  0.13814273     0.26200
N1652       N  0.65666363  0.44261461  0.00256607    -0.36600
N1653       N  0.66071022  0.00163417  0.44733104    -0.57200
N1654       N  0.65744735  0.06033480  0.00293945    -0.36600
N1655       N  0.66118191  0.00134484  0.05808144    -0.57200
C1656       C  0.66395162  0.42102451  0.47303462     0.27000
C1657       C  0.66408646  0.42084598  0.03193429     0.27000
C1658       C  0.66428134  0.08225828  0.47351331     0.27000
C1659       C  0.66386947  0.08214628  0.03250466     0.27000
C1660       C  0.66655417  0.47081573  0.42612690     0.35600
C1661       C  0.66707363  0.03253361  0.42635939     0.35600
C1662       C  0.66300838  0.47032324  0.07980259     0.35600
C1663       C  0.66288006  0.03220506  0.08002875     0.35600
C1664       C  0.67680379  0.38543352  0.48363779    -0.21900
C1665       C  0.67691077  0.38531839  0.02102024    -0.21900
C1666       C  0.67589753  0.11818075  0.48440106    -0.21900
C1667       C  0.67567784  0.11810405  0.02181383    -0.21900
C1668       C  0.67933683  0.48203247  0.39241239    -0.22900
C1669       C  0.67962937  0.02139184  0.39254867    -0.22900
C1670       C  0.66866069  0.48147100  0.11522412    -0.22900
C1671       C  0.66852489  0.02078682  0.11537826    -0.22900
C1672       C  0.66000497  0.43280654  0.43679286    -0.18300
C1673       C  0.65929627  0.43206991  0.06826817    -0.18300
C1674       C  0.65900756  0.07056027  0.06879333    -0.18300
C1675       C  0.66080442  0.07056205  0.43713822    -0.18300
H1676       H  0.68643892  0.36254550  0.46618460     0.14600
H1677       H  0.68648904  0.36223769  0.03827474     0.14600
H1678       H  0.68485694  0.14149102  0.46712239     0.14600
H1679       H  0.68432294  0.14140742  0.03923463     0.14600
H1680       H  0.68861001  0.46368068  0.37054499     0.12900
H1681       H  0.68905756  0.03979586  0.37076955     0.12900
H1682       H  0.67383288  0.46300914  0.13817661     0.12900
H1683       H  0.67351455  0.03908479  0.13848508     0.12900
H1684       H  0.64495595  0.46978485  0.00266587     0.26200
H1685       H  0.64661538  0.03283860  0.00282848     0.26200
N1686       N  0.93794364  0.15933959  0.00250303    -0.36600
N1687       N  0.99661739  0.16280418  0.05813164    -0.57200
N1688       N  0.55566649  0.15849170  0.00293983    -0.36600
N1689       N  0.99694445  0.16285916  0.44740573    -0.57200
C1690       C  0.91599957  0.16625225  0.03189335     0.27000
C1691       C  0.91614431  0.16566702  0.47290916     0.27000
C1692       C  0.57721021  0.16596970  0.03246010     0.27000
C1693       C  0.57739616  0.16600363  0.47356126     0.27000
C1694       C  0.96569646  0.16922367  0.07906373     0.35600
C1695       C  0.52743273  0.16866680  0.07934270     0.35600
C1696       C  0.96610543  0.16446553  0.42543056     0.35600
C1697       C  0.52796069  0.16462925  0.42568532     0.35600
C1698       C  0.88008142  0.17782538  0.02095616    -0.21900
C1699       C  0.88018273  0.17750416  0.48354566    -0.21900
C1700       C  0.61271656  0.17903966  0.02184286    -0.21900
C1701       C  0.61283211  0.17909130  0.48445872    -0.21900
C1702       C  0.97682678  0.18187148  0.11284933    -0.22900
C1703       C  0.51619580  0.18155614  0.11301544    -0.22900
C1704       C  0.97753081  0.16998769  0.39006967    -0.22900
C1705       C  0.51683304  0.17014005  0.39024067    -0.22900
C1706       C  0.92766961  0.16285653  0.06827780    -0.18300
C1707       C  0.92775115  0.16068387  0.43664609    -0.18300
C1708       C  0.56620412  0.16107007  0.43723551    -0.18300
C1709       C  0.56544418  0.16201732  0.06870287    -0.18300
H1710       H  0.85675873  0.18681805  0.03819923     0.14600
H1711       H  0.85689168  0.18609853  0.46608796     0.14600
H1712       H  0.63554356  0.18884201  0.03928470     0.14600
H1713       H  0.63585019  0.18879566  0.46719195     0.14600
H1714       H  0.95841171  0.19133410  0.13460465     0.12900
H1715       H  0.53453626  0.19085106  0.13488328     0.12900
H1716       H  0.95924124  0.17493380  0.36694966     0.12900
H1717       H  0.53530319  0.17527501  0.36728822     0.12900
H1718       H  0.96544027  0.14851700  0.00266832     0.26200
H1719       H  0.52856365  0.14661359  0.00286398     0.26200
C1720       C  0.85105657  0.14525088  0.14212260     0.86500
C1721       C  0.87727450  0.16909417  0.11720068    -0.53700
C1722       C  0.89999043  0.14733861  0.09534352     0.09400
C1723       C  0.89434307  0.10388919  0.10070528     0.20400
C1724       C  0.82848268  0.11886266  0.11628835    -0.54500
C1725       C  0.85130403  0.09704373  0.09461877     0.09500
C1726       C  0.87796471  0.11855361  0.16321525    -0.54000
C1727       C  0.90056354  0.09673183  0.14156765     0.10100
H1728       H  0.87771217  0.20012406  0.11676470     0.14600
H1729       H  0.91294633  0.08610576  0.08305489     0.00300
H1730       H  0.79751601  0.11724338  0.11540997     0.14900
H1731       H  0.87905826  0.11707161  0.19259646     0.14700
N1732       N  0.83971957  0.05745843  0.00256626    -0.36600
N1733       N  0.83556726  0.49841127  0.44735701    -0.57200
N1734       N  0.83890269  0.43972674  0.00296327    -0.36600
N1735       N  0.83519199  0.49874050  0.05808321    -0.57200
C1736       C  0.83229656  0.07900814  0.47303453     0.27000
C1737       C  0.83221714  0.07920588  0.03192878     0.27000
C1738       C  0.83203612  0.41779735  0.47355142     0.27000
C1739       C  0.83247386  0.41792636  0.03254051     0.27000
C1740       C  0.82972227  0.02922928  0.42614617     0.35600
C1741       C  0.82921472  0.46750846  0.42639008     0.35600
C1742       C  0.83341275  0.02976332  0.07980456     0.35600
C1743       C  0.83351378  0.46787976  0.08004019     0.35600
C1744       C  0.81926095  0.11453394  0.48362953    -0.21900
C1745       C  0.81919022  0.11466107  0.02101293    -0.21900
C1746       C  0.82038451  0.38189038  0.48445948    -0.21900
C1747       C  0.82062090  0.38197757  0.02187258    -0.21900
C1748       C  0.81692911  0.01801154  0.39243889    -0.22900
C1749       C  0.81664212  0.47864908  0.39258309    -0.22900
C1750       C  0.82779240  0.01861726  0.11523152    -0.22900
C1751       C  0.82791069  0.47930077  0.11539259    -0.22900
C1752       C  0.83629424  0.06723592  0.43680118    -0.18300
C1753       C  0.83711274  0.06801738  0.06825697    -0.18300
C1754       C  0.83738266  0.42952073  0.06881709    -0.18300
C1755       C  0.83552299  0.42948127  0.43717311    -0.18300
H1756       H  0.80949710  0.13736743  0.46617206     0.14600
H1757       H  0.80951418  0.13769914  0.03826707     0.14600
H1758       H  0.81139666  0.35858593  0.46719295     0.14600
H1759       H  0.81196215  0.35868789  0.03930971     0.14600
H1760       H  0.80765736  0.03636426  0.37056830     0.12900
H1761       H  0.80721849  0.46024290  0.37080894     0.12900
H1762       H  0.82264534  0.03708230  0.13818290     0.12900
H1763       H  0.82294109  0.46100287  0.13850772     0.12900
H1764       H  0.85156464  0.03034160  0.00266329     0.26200
H1765       H  0.84975969  0.46721325  0.00283723     0.26200
C1766       C  0.66594090  0.17210458  0.66731734     0.42500
N1767       N  0.70229432  0.18359479  0.71290460     0.01400
C1768       C  0.70458844  0.34579052  0.81955840    -0.06500
H1769       H  0.72255539  0.36913702  0.67883421     0.06800
C1770       C  0.84404075  0.29370746  0.68602042    -0.06900
Co1771     Co  0.67842051  0.25378152  0.75296156     0.74200
N1772       N  0.70968402  0.32084735  0.71298101    -0.26100
Co1773     Co  0.75200328  0.31988397  0.75257644     0.74100
C1774       C  0.83060672  0.32802057  0.66739259     0.42600
N1775       N  0.81506462  0.20420180  0.71314575     0.01000
N1776       N  0.79424004  0.31649402  0.71295811     0.01100
N1777       N  0.65707934  0.30215414  0.81912006    -0.46900
H1778       H  0.62797004  0.22417381  0.68016729     0.06800
N1779       N  0.68147447  0.29588041  0.71314565     0.01400
N1780       N  0.79408139  0.31680803  0.79241312     0.01100
C1781       C  0.82973173  0.32828657  0.83851974     0.42700
N1782       N  0.78684700  0.17924356  0.71296942    -0.25500
C1783       C  0.65343770  0.20640254  0.82035640    -0.06400
N1784       N  0.69612901  0.15888309  0.68637779    -0.46600
N1785       N  0.80005421  0.34169247  0.81884049    -0.46800
C1786       C  0.66672291  0.17173082  0.83845009     0.42500
N1787       N  0.68180787  0.29599846  0.79260392     0.01300
N1788       N  0.78676302  0.17877576  0.79212960    -0.25500
N1789       N  0.67702995  0.21152551  0.71337216    -0.26000
N1790       N  0.81468847  0.20404613  0.79260142     0.01000
H1791       H  0.77412215  0.12970140  0.82533032     0.06900
H1792       H  0.86727395  0.27566206  0.82676297     0.06900
N1793       N  0.70972926  0.32127349  0.79214796    -0.26100
N1794       N  0.81951088  0.28856840  0.71342163    -0.25700
N1795       N  0.70241155  0.18323037  0.79236867     0.01400
C1796       C  0.66994218  0.33157240  0.66707734     0.42700
C1797       C  0.79191546  0.15522281  0.68515074    -0.06900
N1798       N  0.81903456  0.28858750  0.79258285    -0.25700
H1799       H  0.86859088  0.27595352  0.68022950     0.06900
N1800       N  0.65656831  0.30186477  0.68673837    -0.46900
H1801       H  0.77395533  0.13098232  0.67880894     0.06900
C1802       C  0.82617816  0.16768703  0.83818393     0.42600
C1803       C  0.65251408  0.20641163  0.68595750    -0.06400
Co1804     Co  0.74451111  0.18018219  0.75254505     0.73800
N1805       N  0.83997229  0.19822124  0.68673527    -0.46600
C1806       C  0.67027731  0.33234680  0.83818693     0.42800
N1807       N  0.69641326  0.15832884  0.81878332    -0.46600
Co1808     Co  0.81810272  0.24628384  0.75298359     0.73900
C1809       C  0.84304060  0.29362969  0.82041780    -0.06900
C1810       C  0.70460689  0.34488379  0.68516894    -0.06500
N1811       N  0.67746484  0.21145554  0.79253799    -0.26000
N1812       N  0.80040805  0.34122418  0.68644414    -0.46800
H1813       H  0.72233664  0.37034409  0.82535494     0.06900
C1814       C  0.79187954  0.15425191  0.81954067    -0.06900
Cl1815     Cl  0.74826006  0.25003299  0.75276356    -0.49900
C1816       C  0.82658391  0.16852990  0.66706398     0.42600
H1817       H  0.62920314  0.22437177  0.82669241     0.06800
N1818       N  0.83939742  0.19788105  0.81912834    -0.46600
C1819       C  0.85304072  0.35278227  0.86340819     0.86500
C1820       C  0.87939086  0.33024484  0.88930392    -0.53700
C1821       C  0.90121486  0.35311276  0.91092510     0.09400
C1822       C  0.89443966  0.39613883  0.90472004     0.20400
C1823       C  0.82922641  0.37908094  0.88827134    -0.54500
C1824       C  0.85100490  0.40181329  0.91008962     0.09500
C1825       C  0.87977177  0.37960843  0.84225097    -0.54000
C1826       C  0.90161541  0.40224706  0.86383703     0.10100
H1827       H  0.88098180  0.29927693  0.89025790     0.14600
H1828       H  0.91223758  0.41476944  0.92233007     0.00300
H1829       H  0.79819904  0.37952898  0.88872671     0.14900
H1830       H  0.88124270  0.38063521  0.81286682     0.14700
C1831       C  0.85072481  0.14425843  0.86288905     0.86500
C1832       C  0.87814609  0.11834656  0.84153995    -0.53700
C1833       C  0.90095627  0.09654465  0.86298713     0.09400
C1834       C  0.89395648  0.10243680  0.90392160     0.20400
C1835       C  0.82811029  0.11722358  0.88803385    -0.54500
C1836       C  0.85080871  0.09523703  0.90958919     0.09500
C1837       C  0.87653981  0.16779386  0.88848119    -0.54000
C1838       C  0.89928018  0.14569656  0.91007914     0.10100
H1839       H  0.87921540  0.11714123  0.81214470     0.14600
H1840       H  0.91250670  0.08441601  0.92140653     0.00300
H1841       H  0.79713302  0.11577729  0.88898363     0.14900
H1842       H  0.87703005  0.19881100  0.88923255     0.14700
C1843       C  0.64570419  0.35576427  0.86288898     0.86500
C1844       C  0.66828316  0.38283419  0.88802394    -0.53700
C1845       C  0.64555024  0.40480120  0.90956827     0.09400
C1846       C  0.60241925  0.39755836  0.90389767     0.20400
C1847       C  0.61991042  0.33221286  0.88850093    -0.54500
C1848       C  0.59715161  0.35429482  0.91009708     0.09500
C1849       C  0.61826417  0.38164733  0.84152591    -0.54000
C1850       C  0.59543650  0.40344607  0.86295702     0.10100
H1851       H  0.69925887  0.38430737  0.88898434     0.14600
H1852       H  0.58384511  0.41556737  0.92136914     0.00300
H1853       H  0.61945464  0.30119544  0.88927043     0.14900
H1854       H  0.61720976  0.38285217  0.81213000     0.14700
C1855       C  0.64338926  0.14723952  0.86333023     0.86500
C1856       C  0.61703567  0.16979102  0.88921134    -0.53700
C1857       C  0.59519943  0.14693477  0.91083905     0.09400
C1858       C  0.60194439  0.10390603  0.90463638     0.20400
C1859       C  0.66717596  0.12093885  0.88821560    -0.54500
C1860       C  0.64536816  0.09822524  0.91003348     0.09500
C1861       C  0.61666208  0.12041623  0.84216808    -0.54000
C1862       C  0.59479693  0.09778240  0.86374912     0.10100
H1863       H  0.61546595  0.20075997  0.89016467     0.14600
H1864       H  0.58412720  0.08528593  0.92224463     0.00300
H1865       H  0.69820289  0.12048007  0.88869059     0.14900
H1866       H  0.61521381  0.11938593  0.81278364     0.14700
N1867       N  0.99839390  0.44122689  0.85312631    -0.36600
N1868       N  0.55621217  0.00040137  0.84841309    -0.57200
N1869       N  0.99802285  0.05878886  0.85311863    -0.36600
N1870       N  0.94020245  0.99961063  0.84850694    -0.57200
C1871       C  0.52940736  0.42069324  0.84347385     0.27000
C1872       C  0.96746759  0.42026197  0.84402508     0.27000
C1873       C  0.52893740  0.07975313  0.84397014     0.27000
C1874       C  0.96699416  0.07931218  0.84348484     0.27000
C1875       C  0.57921611  0.46978535  0.84478248     0.35600
C1876       C  0.57908440  0.03121193  0.84538929     0.35600
C1877       C  0.91732710  0.46880408  0.84551198     0.35600
C1878       C  0.91719087  0.03021851  0.84488537     0.35600
C1879       C  0.51821459  0.38701266  0.82710753    -0.21900
C1880       C  0.97879131  0.38675283  0.82743354    -0.21900
C1881       C  0.51759081  0.11325288  0.82736961    -0.21900
C1882       C  0.97816647  0.11298425  0.82708159    -0.21900
C1883       C  0.61593810  0.48106221  0.83655859    -0.22900
C1884       C  0.61585068  0.02031046  0.83694637    -0.22900
C1885       C  0.88055142  0.47969829  0.83710493    -0.22900
C1886       C  0.88046085  0.01894164  0.83670417    -0.22900
C1887       C  0.56747735  0.43179459  0.84891462    -0.18300
C1888       C  0.92936562  0.43096529  0.84997361    -0.18300
C1889       C  0.92892855  0.06820583  0.84896807    -0.18300
C1890       C  0.56704924  0.06905576  0.84987948    -0.18300
H1891       H  0.53658707  0.36543732  0.81537337     0.14600
H1892       H  0.96049867  0.36496027  0.81595391     0.14300
H1893       H  0.53586906  0.13504345  0.81585925     0.14600
H1894       H  0.95977970  0.13454931  0.81534794     0.14600
H1895       H  0.63967251  0.46276693  0.82947047     0.12900
H1896       H  0.63946801  0.03887132  0.83013580     0.12900
H1897       H  0.85693429  0.46113436  0.83030971     0.12900
H1898       H  0.85672341  0.03723376  0.82961909     0.12900
H1899       H  0.99837154  0.46694516  0.86723134     0.26200
H1900       H  0.99806737  0.03307730  0.86724100     0.26200
C1901       C  0.85399102  0.35255888  0.64263501     0.86500
C1902       C  0.83040159  0.37829689  0.61701030    -0.53700
C1903       C  0.85244186  0.40104803  0.59536676     0.09400
C1904       C  0.89571715  0.39578022  0.60149721     0.20400
C1905       C  0.88105078  0.32993689  0.61752667    -0.54500
C1906       C  0.90300302  0.35262646  0.59592868     0.09500
C1907       C  0.87987568  0.38006102  0.66391726    -0.54000
C1908       C  0.90162872  0.40286094  0.64240830     0.10100
H1909       H  0.79938487  0.37875217  0.61629353     0.14600
H1910       H  0.91369859  0.41432759  0.58396998     0.00300
H1911       H  0.88254714  0.29895795  0.61663937     0.14900
H1912       H  0.88111449  0.38117786  0.69330946     0.14700
C1913       C  0.64544281  0.35485655  0.64216178     0.86500
C1914       C  0.61921669  0.33101954  0.61724350    -0.53700
C1915       C  0.59649234  0.35278219  0.59539520     0.09400
C1916       C  0.60211707  0.39622732  0.60078686     0.20400
C1917       C  0.66799270  0.38125839  0.61631878    -0.54500
C1918       C  0.64514524  0.40307417  0.59467071     0.09500
C1919       C  0.61854181  0.38153975  0.66328208    -0.54000
C1920       C  0.59592577  0.40337322  0.64165863     0.10100
H1921       H  0.61878865  0.29998971  0.61679685     0.14600
H1922       H  0.58350092  0.41401677  0.58315275     0.00300
H1923       H  0.69895847  0.38287515  0.61540434     0.14900
H1924       H  0.61747242  0.38301051  0.69266436     0.14700
N1925       N  0.55853961  0.34081596  0.50255033    -0.36600
N1926       N  0.99986006  0.33733216  0.55817693    -0.57200
N1927       N  0.94080955  0.34152213  0.50299227    -0.36600
N1928       N  0.99950015  0.33717969  0.94746498    -0.57200
C1929       C  0.58044574  0.33377999  0.53194572     0.27000
C1930       C  0.58028577  0.33429184  0.97295291     0.27000
C1931       C  0.91925542  0.33411160  0.53251969     0.27000
C1932       C  0.91904815  0.33406442  0.97363066     0.27000
C1933       C  0.53077182  0.33098308  0.57913588     0.35600
C1934       C  0.96904325  0.33150088  0.57939915     0.35600
C1935       C  0.53033312  0.33555167  0.92548163     0.35600
C1936       C  0.96847708  0.33541551  0.92575058     0.35600
C1937       C  0.61627555  0.32193082  0.52100818    -0.21900
C1938       C  0.61616564  0.32220848  0.98359232    -0.21900
C1939       C  0.88370984  0.32113302  0.52192677    -0.21900
C1940       C  0.88358093  0.32107345  0.98454553    -0.21900
C1941       C  0.51963932  0.31841167  0.61294886    -0.22900
C1942       C  0.98027455  0.31869891  0.61310328    -0.22900
C1943       C  0.51889971  0.33001871  0.89012676    -0.22900
C1944       C  0.97959717  0.32988004  0.89030828    -0.22900
C1945       C  0.56879916  0.33728222  0.56833360    -0.18300
C1946       C  0.56869083  0.33929897  0.93668424    -0.18300
C1947       C  0.93023200  0.33898787  0.93730625    -0.18300
C1948       C  0.93102918  0.33809270  0.56874800    -0.18300
H1949       H  0.63954281  0.31279839  0.53825347     0.14600
H1950       H  0.63939398  0.31343572  0.96613674     0.14600
H1951       H  0.86086274  0.31140123  0.53938392     0.14600
H1952       H  0.86053071  0.31143096  0.96729200     0.14600
H1953       H  0.53805177  0.30899306  0.63472253     0.12900
H1954       H  0.96193120  0.30942727  0.63498156     0.12900
H1955       H  0.53718401  0.32505352  0.86700501     0.12900
H1956       H  0.96112136  0.32473132  0.86736658     0.12900
H1957       H  0.53111590  0.35184003  0.50270720     0.26200
H1958       H  0.96793827  0.35333500  0.50290203     0.26200
C1959       C  0.64252234  0.14756516  0.64258515     0.86500
C1960       C  0.66607483  0.12179840  0.61695648    -0.53700
C1961       C  0.64399974  0.09904618  0.59534991     0.09400
C1962       C  0.60073578  0.10433926  0.60151579     0.20400
C1963       C  0.61544746  0.17018468  0.61747762    -0.54500
C1964       C  0.59346600  0.14749346  0.59590870     0.09500
C1965       C  0.61664584  0.12008440  0.66391016    -0.54000
C1966       C  0.59486931  0.09727624  0.64243889     0.10100
H1967       H  0.69709065  0.12132795  0.61620830     0.14600
H1968       H  0.58272861  0.08578987  0.58402056     0.00300
H1969       H  0.61397539  0.20116393  0.61656154     0.14900
H1970       H  0.61543307  0.11898369  0.69330447     0.14700
N1971       N  0.93946655  0.49992430  0.65210319    -0.36600
N1972       N  0.99859231  0.44208086  0.65685138    -0.57200
N1973       N  0.55705017  0.00020991  0.65222582    -0.36600
N1974       N  0.99791713  0.05805310  0.65685341    -0.57200
C1975       C  0.91890042  0.46892494  0.66174056     0.27000
C1976       C  0.91853528  0.03085956  0.66123381     0.27000
C1977       C  0.57798656  0.46927011  0.66134454     0.27000
C1978       C  0.57761358  0.03121550  0.66184606     0.27000
C1979       C  0.96796193  0.41909296  0.66045771     0.35600
C1980       C  0.52937368  0.41917875  0.65989972     0.35600
C1981       C  0.96712976  0.08096310  0.65979057     0.35600
C1982       C  0.52853887  0.08105159  0.66045373     0.35600
C1983       C  0.88522501  0.48013586  0.67810227    -0.21900
C1984       C  0.88500627  0.01955808  0.67780220    -0.21900
C1985       C  0.61152268  0.48057662  0.67789427    -0.21900
C1986       C  0.61129852  0.02000339  0.67819185    -0.21900
C1987       C  0.97919743  0.38235903  0.66867751    -0.22900
C1988       C  0.51843588  0.38241662  0.66832103    -0.22900
C1989       C  0.97804912  0.11774734  0.66813562    -0.22900
C1990       C  0.51728549  0.11780855  0.66855546    -0.22900
C1991       C  0.92998753  0.43084909  0.65633890    -0.18300
C1992       C  0.92928138  0.06895427  0.65534488    -0.18300
C1993       C  0.56652318  0.06929471  0.65641621    -0.18300
C1994       C  0.56723105  0.43116991  0.65546425    -0.18300
H1995       H  0.86364263  0.46177547  0.68984565     0.14600
H1996       H  0.86324106  0.03786589  0.68930671     0.14600
H1997       H  0.63329964  0.46227061  0.68938317     0.14600
H1998       H  0.63289031  0.03836453  0.68991298     0.14600
H1999       H  0.96087803  0.35863919  0.67575964     0.12900
H2000       H  0.53696748  0.35878625  0.67515420     0.12900
H2001       H  0.95950276  0.14139020  0.67488810     0.12900
H2002       H  0.53559066  0.14154796  0.67560390     0.12900
H2003       H  0.96519285  0.49993760  0.63800880     0.26200
H2004       H  0.53132072  0.00019657  0.63814288     0.26200
N2005       N  0.65666363  0.44261462  0.50256613    -0.36600
N2006       N  0.66071023  0.00163435  0.94733113    -0.57200
N2007       N  0.65744728  0.06033431  0.50293935    -0.36600
N2008       N  0.66118205  0.00134477  0.55808142    -0.57200
C2009       C  0.66395164  0.42102433  0.97303453     0.27000
C2010       C  0.66408641  0.42084620  0.53193423     0.27000
C2011       C  0.66428142  0.08225857  0.97351340     0.27000
C2012       C  0.66386930  0.08214592  0.53250443     0.27000
C2013       C  0.66655416  0.47081562  0.92612704     0.35600
C2014       C  0.66707361  0.03253386  0.92635939     0.35600
C2015       C  0.66300849  0.47032320  0.57980262     0.35600
C2016       C  0.66288004  0.03220502  0.58002869     0.35600
C2017       C  0.67680377  0.38543369  0.98363782    -0.21900
C2018       C  0.67691068  0.38531836  0.52102025    -0.21900
C2019       C  0.67589778  0.11818104  0.98440130    -0.21900
C2020       C  0.67567752  0.11810343  0.52181324    -0.21900
C2021       C  0.67933667  0.48203214  0.89241256    -0.22900
C2022       C  0.67962947  0.02139246  0.89254858    -0.22900
C2023       C  0.66866073  0.48147091  0.61522418    -0.22900
C2024       C  0.66852483  0.02078692  0.61537828    -0.22900
C2025       C  0.66000491  0.43280637  0.93679277    -0.18300
C2026       C  0.65929628  0.43206997  0.56826820    -0.18300
C2027       C  0.65900755  0.07056019  0.56879321    -0.18300
C2028       C  0.66080439  0.07056217  0.93713831    -0.18300
H2029       H  0.68643908  0.36254583  0.96618441     0.14600
H2030       H  0.68648929  0.36223788  0.53827483     0.14600
H2031       H  0.68485755  0.14149090  0.96712240     0.14600
H2032       H  0.68432279  0.14140727  0.53923403     0.14600
H2033       H  0.68860971  0.46368005  0.87054528     0.12900
H2034       H  0.68905772  0.03979614  0.87076948     0.12900
H2035       H  0.67383310  0.46300939  0.63817677     0.12900
H2036       H  0.67351432  0.03908492  0.63848516     0.12900
H2037       H  0.64495577  0.46978518  0.50266588     0.26200
H2038       H  0.64661558  0.03283794  0.50282851     0.26200
N2039       N  0.93794374  0.15933954  0.50250313    -0.36600
N2040       N  0.99661743  0.16280427  0.55813152    -0.57200
N2041       N  0.55566662  0.15849177  0.50293984    -0.36600
N2042       N  0.99694451  0.16285920  0.94740566    -0.57200
C2043       C  0.91599965  0.16625231  0.53189341     0.27000
C2044       C  0.91614410  0.16566713  0.97290903     0.27000
C2045       C  0.57721043  0.16596990  0.53246025     0.27000
C2046       C  0.57739586  0.16600350  0.97356128     0.27000
C2047       C  0.96569654  0.16922368  0.57906369     0.35600
C2048       C  0.52743267  0.16866671  0.57934251     0.35600
C2049       C  0.96610545  0.16446535  0.92543053     0.35600
C2050       C  0.52796082  0.16462924  0.92568514     0.35600
C2051       C  0.88008153  0.17782537  0.52095629    -0.21900
C2052       C  0.88018229  0.17750424  0.98354539    -0.21900
C2053       C  0.61271656  0.17903971  0.52184309    -0.21900
C2054       C  0.61283211  0.17909136  0.98445848    -0.21900
C2055       C  0.97682717  0.18187133  0.61284919    -0.22900
C2056       C  0.51619559  0.18155586  0.61301501    -0.22900
C2057       C  0.97753090  0.16998772  0.89006969    -0.22900
C2058       C  0.51683347  0.17014019  0.89024039    -0.22900
C2059       C  0.92766968  0.16285666  0.56827781    -0.18300
C2060       C  0.92775112  0.16068378  0.93664602    -0.18300
C2061       C  0.56620411  0.16107013  0.93723547    -0.18300
C2062       C  0.56544419  0.16201729  0.56870291    -0.18300
H2063       H  0.85675863  0.18681802  0.53819915     0.14600
H2064       H  0.85689135  0.18609856  0.96608781     0.14600
H2065       H  0.63554336  0.18884224  0.53928508     0.14600
H2066       H  0.63584990  0.18879603  0.96719173     0.14600
H2067       H  0.95841238  0.19133392  0.63460482     0.12900
H2068       H  0.53453638  0.19085063  0.63488293     0.12900
H2069       H  0.95924132  0.17493348  0.86694957     0.12900
H2070       H  0.53530381  0.17527533  0.86728833     0.12900
H2071       H  0.96544040  0.14851681  0.50266848     0.26200
H2072       H  0.52856423  0.14661371  0.50286392     0.26200
C2073       C  0.85105637  0.14525092  0.64212222     0.86500
C2074       C  0.87727457  0.16909407  0.61720049    -0.53700
C2075       C  0.89999049  0.14733845  0.59534332     0.09400
C2076       C  0.89434330  0.10388886  0.60070480     0.20400
C2077       C  0.82848220  0.11886263  0.61628817    -0.54500
C2078       C  0.85130391  0.09704370  0.59461866     0.09500
C2079       C  0.87796458  0.11855370  0.66321440    -0.54000
C2080       C  0.90056359  0.09673173  0.64156719     0.10100
H2081       H  0.87771232  0.20012395  0.61676428     0.14600
H2082       H  0.91294638  0.08610565  0.58305444     0.00300
H2083       H  0.79751578  0.11724349  0.61540959     0.14900
H2084       H  0.87905832  0.11707218  0.69259591     0.14700
N2085       N  0.83971910  0.05745865  0.50256632    -0.36600
N2086       N  0.83556734  0.49841126  0.94735731    -0.57200
N2087       N  0.83890264  0.43972684  0.50296332    -0.36600
N2088       N  0.83519217  0.49874039  0.55808298    -0.57200
C2089       C  0.83229681  0.07900753  0.97303466     0.27000
C2090       C  0.83221675  0.07920648  0.53192886     0.27000
C2091       C  0.83203612  0.41779696  0.97355125     0.27000
C2092       C  0.83247395  0.41792660  0.53254055     0.27000
C2093       C  0.82972237  0.02922928  0.92614647     0.35600
C2094       C  0.82921489  0.46750851  0.92639037     0.35600
C2095       C  0.83341269  0.02976334  0.57980440     0.35600
C2096       C  0.83351394  0.46787967  0.58004007     0.35600
C2097       C  0.81926117  0.11453313  0.98362977    -0.21900
C2098       C  0.81919010  0.11466178  0.52101305    -0.21900
C2099       C  0.82038435  0.38189001  0.98445893    -0.21900
C2100       C  0.82062077  0.38197765  0.52187306    -0.21900
C2101       C  0.81692956  0.01801150  0.89243948    -0.22900
C2102       C  0.81664247  0.47864922  0.89258361    -0.22900
C2103       C  0.82779236  0.01861727  0.61523137    -0.22900
C2104       C  0.82791075  0.47930051  0.61539235    -0.22900
C2105       C  0.83629429  0.06723582  0.93680125    -0.18300
C2106       C  0.83711266  0.06801755  0.56825692    -0.18300
C2107       C  0.83738270  0.42952077  0.56881704    -0.18300
C2108       C  0.83552297  0.42948113  0.93717308    -0.18300
H2109       H  0.80949711  0.13736692  0.96617245     0.14600
H2110       H  0.80951464  0.13769953  0.53826756     0.14600
H2111       H  0.81139644  0.35858585  0.96719234     0.14600
H2112       H  0.81196166  0.35868818  0.53931014     0.14600
H2113       H  0.80765775  0.03636420  0.87056862     0.12900
H2114       H  0.80721899  0.46024296  0.87080920     0.12900
H2115       H  0.82264560  0.03708258  0.63818274     0.12900
H2116       H  0.82294105  0.46100287  0.63850769     0.12900
H2117       H  0.85156338  0.03034197  0.50266336     0.26200
H2118       H  0.84975975  0.46721367  0.50283715     0.26200
C2119       C  0.66594108  0.67210441  0.16731742     0.42500
N2120       N  0.70229446  0.68359464  0.21290478     0.01400
C2121       C  0.70458806  0.84579003  0.31955834    -0.06500
H2122       H  0.72255600  0.86913698  0.17883415     0.06800
C2123       C  0.84404077  0.79370750  0.18602047    -0.06900
Co2124     Co  0.67842052  0.75378155  0.25296151     0.74200
N2125       N  0.70968412  0.82084753  0.21298105    -0.26100
Co2126     Co  0.75200332  0.81988392  0.25257653     0.74100
C2127       C  0.83060675  0.82802062  0.16739268     0.42600
N2128       N  0.81506447  0.70420158  0.21314570     0.01000
N2129       N  0.79424011  0.81649403  0.21295822     0.01100
N2130       N  0.65707913  0.80215412  0.31912001    -0.46900
H2131       H  0.62797028  0.72417325  0.18016760     0.06800
N2132       N  0.68147465  0.79588046  0.21314557     0.01400
N2133       N  0.79408142  0.81680793  0.29241316     0.01100
C2134       C  0.82973180  0.82828661  0.33851970     0.42700
N2135       N  0.78684679  0.67924322  0.21296928    -0.25500
C2136       C  0.65343769  0.70640263  0.32035656    -0.06400
N2137       N  0.69612918  0.65888304  0.18637782    -0.46600
N2138       N  0.80005417  0.84169243  0.31884054    -0.46800
C2139       C  0.66672303  0.67173091  0.33845017     0.42500
N2140       N  0.68180769  0.79599840  0.29260382     0.01300
N2141       N  0.78676303  0.67877580  0.29212961    -0.25500
N2142       N  0.67703037  0.71152541  0.21337230    -0.26000
N2143       N  0.81468856  0.70404609  0.29260138     0.01000
H2144       H  0.77412209  0.62970135  0.32533032     0.06900
H2145       H  0.86727432  0.77566225  0.32676264     0.06900
N2146       N  0.70972913  0.82127323  0.29214795    -0.26100
N2147       N  0.81951096  0.78856833  0.21342169    -0.25700
N2148       N  0.70241158  0.68323057  0.29236876     0.01400
C2149       C  0.66994236  0.83157259  0.16707738     0.42700
C2150       C  0.79191485  0.65522213  0.18515058    -0.06900
N2151       N  0.81903458  0.78858743  0.29258293    -0.25700
H2152       H  0.86859103  0.77595374  0.18022959     0.06900
N2153       N  0.65656840  0.80186491  0.18673840    -0.46900
H2154       H  0.77395472  0.63098213  0.17880880     0.06900
C2155       C  0.82617819  0.66768691  0.33818389     0.42600
C2156       C  0.65251476  0.70641108  0.18595778    -0.06400
Co2157     Co  0.74451108  0.68018218  0.25254516     0.73800
N2158       N  0.83997219  0.69822097  0.18673529    -0.46600
C2159       C  0.67027716  0.83234661  0.33818697     0.42800
N2160       N  0.69641324  0.65832889  0.31878329    -0.46600
Co2161     Co  0.81810274  0.74628376  0.25298355     0.73900
C2162       C  0.84304077  0.79362967  0.32041779    -0.06900
C2163       C  0.70460730  0.84488416  0.18516895    -0.06500
N2164       N  0.67746479  0.71145570  0.29253809    -0.26000
N2165       N  0.80040810  0.84122415  0.18644430    -0.46800
H2166       H  0.72233664  0.87034365  0.32535502     0.06900
C2167       C  0.79187961  0.65425187  0.31954061    -0.06900
Cl2168     Cl  0.74826006  0.75003296  0.25276361    -0.49900
C2169       C  0.82658365  0.66852968  0.16706398     0.42600
H2170       H  0.62920340  0.72437194  0.32669296     0.06800
N2171       N  0.83939747  0.69788098  0.31912830    -0.46600
C2172       C  0.85304085  0.85278238  0.36340799     0.86500
C2173       C  0.87939096  0.83024498  0.38930381    -0.53700
C2174       C  0.90121485  0.85311286  0.41092507     0.09400
C2175       C  0.89443970  0.89613892  0.40472006     0.20400
C2176       C  0.82922650  0.87908097  0.38827124    -0.54500
C2177       C  0.85100493  0.90181324  0.41008964     0.09500
C2178       C  0.87977191  0.87960852  0.34225053    -0.54000
C2179       C  0.90161553  0.90224701  0.36383689     0.10100
H2180       H  0.88098165  0.79927697  0.39025816     0.14600
H2181       H  0.91223752  0.91476954  0.42233010     0.00300
H2182       H  0.79819911  0.87952918  0.38872617     0.14900
H2183       H  0.88124283  0.88063545  0.31286657     0.14700
C2184       C  0.85072476  0.64425807  0.36288893     0.86500
C2185       C  0.87814612  0.61834645  0.34153979    -0.53700
C2186       C  0.90095638  0.59654467  0.36298710     0.09400
C2187       C  0.89395652  0.60243678  0.40392170     0.20400
C2188       C  0.82811024  0.61722340  0.38803386    -0.54500
C2189       C  0.85080870  0.59523696  0.40958924     0.09500
C2190       C  0.87653971  0.66779311  0.38848106    -0.54000
C2191       C  0.89928018  0.64569634  0.41007918     0.10100
H2192       H  0.87921543  0.61714118  0.31214451     0.14600
H2193       H  0.91250673  0.58441621  0.42140680     0.00300
H2194       H  0.79713298  0.61577709  0.38898353     0.14900
H2195       H  0.87702948  0.69881055  0.38923228     0.14700
C2196       C  0.64570418  0.85576430  0.36288902     0.86500
C2197       C  0.66828325  0.88283419  0.38802401    -0.53700
C2198       C  0.64555028  0.90480113  0.40956839     0.09400
C2199       C  0.60241920  0.89755851  0.40389779     0.20400
C2200       C  0.61991037  0.83221301  0.38850105    -0.54500
C2201       C  0.59715154  0.85429496  0.41009718     0.09500
C2202       C  0.61826415  0.88164730  0.34152588    -0.54000
C2203       C  0.59543644  0.90344598  0.36295706     0.10100
H2204       H  0.69925893  0.88430703  0.38898480     0.14600
H2205       H  0.58384530  0.91556775  0.42136920     0.00300
H2206       H  0.61945465  0.80119559  0.38927087     0.14900
H2207       H  0.61720963  0.88285203  0.31212997     0.14700
C2208       C  0.64338932  0.64723966  0.36333019     0.86500
C2209       C  0.61703569  0.66979122  0.38921134    -0.53700
C2210       C  0.59519956  0.64693493  0.41083902     0.09400
C2211       C  0.60194477  0.60390634  0.40463608     0.20400
C2212       C  0.66717608  0.62093900  0.38821545    -0.54500
C2213       C  0.64536836  0.59822532  0.41003328     0.09500
C2214       C  0.61666222  0.62041630  0.34216797    -0.54000
C2215       C  0.59479708  0.59778246  0.36374896     0.10100
H2216       H  0.61546594  0.70076016  0.39016473     0.14600
H2217       H  0.58412762  0.58528612  0.42224464     0.00300
H2218       H  0.69820299  0.62048056  0.38869060     0.14900
H2219       H  0.61521390  0.61938633  0.31278355     0.14700
N2220       N  0.99839406  0.94122686  0.35312633    -0.36600
N2221       N  0.55621230  0.50040142  0.34841304    -0.57200
N2222       N  0.99802280  0.55878872  0.35311869    -0.36600
N2223       N  0.94020241  0.49961061  0.34850692    -0.57200
C2224       C  0.52940739  0.92069329  0.34347398     0.27000
C2225       C  0.96746778  0.92026212  0.34402524     0.27000
C2226       C  0.52893743  0.57975301  0.34397021     0.27000
C2227       C  0.96699414  0.57931207  0.34348473     0.27000
C2228       C  0.57921620  0.96978518  0.34478243     0.35600
C2229       C  0.57908458  0.53121201  0.34538926     0.35600
C2230       C  0.91732698  0.96880398  0.34551200     0.35600
C2231       C  0.91719077  0.53021842  0.34488548     0.35600
C2232       C  0.51821460  0.88701290  0.32710762    -0.21900
C2233       C  0.97879163  0.88675323  0.32743372    -0.21900
C2234       C  0.51759079  0.61325247  0.32736972    -0.21900
C2235       C  0.97816640  0.61298424  0.32708161    -0.21900
C2236       C  0.61593831  0.98106189  0.33655851    -0.22900
C2237       C  0.61585107  0.52031069  0.33694646    -0.22900
C2238       C  0.88055108  0.97969789  0.33710480    -0.22900
C2239       C  0.88046063  0.51894151  0.33670407    -0.22900
C2240       C  0.56747733  0.93179455  0.34891468    -0.18300
C2241       C  0.92936571  0.93096528  0.34997363    -0.18300
C2242       C  0.92892856  0.56820577  0.34896818    -0.18300
C2243       C  0.56704934  0.56905582  0.34987936    -0.18300
H2244       H  0.53658647  0.86543690  0.31537355     0.14600
H2245       H  0.96049856  0.86496093  0.31595390     0.14300
H2246       H  0.53586917  0.63504299  0.31585905     0.14600
H2247       H  0.95977982  0.63454944  0.31534785     0.14600
H2248       H  0.63967294  0.96276712  0.32947044     0.12900
H2249       H  0.63946857  0.53887140  0.33013647     0.12900
H2250       H  0.85693432  0.96113393  0.33030935     0.12900
H2251       H  0.85672325  0.53723375  0.32961909     0.12900
H2252       H  0.99837169  0.96694514  0.36723146     0.26200
H2253       H  0.99806728  0.53307724  0.36724111     0.26200
C2254       C  0.85399109  0.85255898  0.14263504     0.86500
C2255       C  0.83040162  0.87829696  0.11701038    -0.53700
C2256       C  0.85244189  0.90104801  0.09536663     0.09400
C2257       C  0.89571734  0.89578046  0.10149685     0.20400
C2258       C  0.88105084  0.82993705  0.11752665    -0.54500
C2259       C  0.90300316  0.85262661  0.09592865     0.09500
C2260       C  0.87987587  0.88006109  0.16391719    -0.54000
C2261       C  0.90162888  0.90286097  0.14240809     0.10100
H2262       H  0.79938488  0.87875262  0.11629416     0.14600
H2263       H  0.91369839  0.91432771  0.08396951     0.00300
H2264       H  0.88254706  0.79895816  0.11663919     0.14900
H2265       H  0.88111471  0.88117835  0.19330933     0.14700
C2266       C  0.64544292  0.85485651  0.14216155     0.86500
C2267       C  0.61921675  0.83101951  0.11724347    -0.53700
C2268       C  0.59649237  0.85278213  0.09539512     0.09400
C2269       C  0.60211701  0.89622734  0.10078671     0.20400
C2270       C  0.66799274  0.88125841  0.11631870    -0.54500
C2271       C  0.64514524  0.90307417  0.09467061     0.09500
C2272       C  0.61854190  0.88153973  0.16328139    -0.54000
C2273       C  0.59592575  0.90337332  0.14165833     0.10100
H2274       H  0.61878891  0.79998964  0.11679698     0.14600
H2275       H  0.58350077  0.91401679  0.08315269     0.00300
H2276       H  0.69895850  0.88287511  0.11540418     0.14900
H2277       H  0.61747306  0.88301104  0.19266392     0.14700
N2278       N  0.55853960  0.84081588  0.00255044    -0.36600
N2279       N  0.99986004  0.83733207  0.05817694    -0.57200
N2280       N  0.94080982  0.84152203  0.00299211    -0.36600
N2281       N  0.99950008  0.83717958  0.44746483    -0.57200
C2282       C  0.58044550  0.83378013  0.03194567     0.27000
C2283       C  0.58028588  0.83429178  0.47295289     0.27000
C2284       C  0.91925575  0.83411170  0.03251960     0.27000
C2285       C  0.91904801  0.83406437  0.47363062     0.27000
C2286       C  0.53077187  0.83098320  0.07913604     0.35600
C2287       C  0.96904328  0.83150090  0.07939911     0.35600
C2288       C  0.53033314  0.83555156  0.42548166     0.35600
C2289       C  0.96847705  0.83541546  0.42575041     0.35600
C2290       C  0.61627537  0.82193093  0.02100804    -0.21900
C2291       C  0.61616576  0.82220835  0.48359237    -0.21900
C2292       C  0.88371054  0.82113334  0.02192645    -0.21900
C2293       C  0.88358065  0.82107339  0.48454531    -0.21900
C2294       C  0.51963946  0.81841165  0.11294888    -0.22900
C2295       C  0.98027488  0.81869904  0.11310302    -0.22900
C2296       C  0.51889986  0.83001879  0.39012674    -0.22900
C2297       C  0.97959738  0.82987995  0.39030802    -0.22900
C2298       C  0.56879912  0.83728208  0.06833365    -0.18300
C2299       C  0.56869086  0.83929894  0.43668425    -0.18300
C2300       C  0.93023197  0.83898792  0.43730624    -0.18300
C2301       C  0.93102923  0.83809265  0.06874796    -0.18300
H2302       H  0.63954275  0.81279880  0.03825330     0.14600
H2303       H  0.63939428  0.81343560  0.46613704     0.14600
H2304       H  0.86086316  0.81140183  0.03938385     0.14600
H2305       H  0.86053067  0.81143094  0.46729167     0.14600
H2306       H  0.53805199  0.80899327  0.13472251     0.12900
H2307       H  0.96193172  0.80942725  0.13498148     0.12900
H2308       H  0.53718417  0.82505326  0.36700510     0.12900
H2309       H  0.96112180  0.82473154  0.36736623     0.12900
H2310       H  0.53111551  0.85183981  0.00270743     0.26200
H2311       H  0.96793853  0.85333472  0.00290182     0.26200
C2312       C  0.64252224  0.64756530  0.14258515     0.86500
C2313       C  0.66607460  0.62179844  0.11695646    -0.53700
C2314       C  0.64399953  0.59904625  0.09534988     0.09400
C2315       C  0.60073555  0.60433920  0.10151574     0.20400
C2316       C  0.61544740  0.67018523  0.11747752    -0.54500
C2317       C  0.59346599  0.64749367  0.09590861     0.09500
C2318       C  0.61664585  0.62008442  0.16391021    -0.54000
C2319       C  0.59486934  0.59727629  0.14243893     0.10100
H2320       H  0.69709043  0.62132811  0.11620799     0.14600
H2321       H  0.58272835  0.58578955  0.08402101     0.00300
H2322       H  0.61397481  0.70116424  0.11656186     0.14900
H2323       H  0.61543263  0.61898412  0.19330453     0.14700
N2324       N  0.93946653  0.99992428  0.15210333    -0.36600
N2325       N  0.99859211  0.94208082  0.15685143    -0.57200
N2326       N  0.55705053  0.50020985  0.15222583    -0.36600
N2327       N  0.99791734  0.55805296  0.15685348    -0.57200
C2328       C  0.91890012  0.96892485  0.16174075     0.27000
C2329       C  0.91853537  0.53085954  0.16123384     0.27000
C2330       C  0.57798664  0.96927006  0.16134463     0.27000
C2331       C  0.57761397  0.53121554  0.16184631     0.27000
C2332       C  0.96796170  0.91909275  0.16045791     0.35600
C2333       C  0.52937331  0.91917892  0.15989966     0.35600
C2334       C  0.96712992  0.58096290  0.15979061     0.35600
C2335       C  0.52853899  0.58105151  0.16045376     0.35600
C2336       C  0.88522470  0.98013569  0.17810235    -0.21900
C2337       C  0.88500638  0.51955799  0.17780206    -0.21900
C2338       C  0.61152290  0.98057640  0.17789442    -0.21900
C2339       C  0.61129879  0.52000315  0.17819205    -0.21900
C2340       C  0.97919677  0.88235837  0.16867776    -0.22900
C2341       C  0.51843495  0.88241706  0.16832093    -0.22900
C2342       C  0.97804944  0.61774694  0.16813537    -0.22900
C2343       C  0.51728563  0.61780842  0.16855531    -0.22900
C2344       C  0.92998745  0.93084904  0.15633888    -0.18300
C2345       C  0.92928150  0.56895421  0.15534486    -0.18300
C2346       C  0.56652335  0.56929470  0.15641633    -0.18300
C2347       C  0.56723097  0.93116990  0.15546427    -0.18300
H2348       H  0.86364234  0.96177537  0.18984577     0.14600
H2349       H  0.86324104  0.53786586  0.18930634     0.14600
H2350       H  0.63329949  0.96227016  0.18938324     0.14600
H2351       H  0.63289037  0.53836419  0.18991369     0.14600
H2352       H  0.96087781  0.85863862  0.17575971     0.12900
H2353       H  0.53696711  0.85878653  0.17515379     0.12900
H2354       H  0.95950287  0.64138994  0.17488788     0.12900
H2355       H  0.53559063  0.64154793  0.17560377     0.12900
H2356       H  0.96519250  0.99993763  0.13800917     0.26200
H2357       H  0.53132153  0.50019641  0.13814279     0.26200
N2358       N  0.65666373  0.94261478  0.00256603    -0.36600
N2359       N  0.66071027  0.50163433  0.44733107    -0.57200
N2360       N  0.65744706  0.56033464  0.00293944    -0.36600
N2361       N  0.66118197  0.50134485  0.05808148    -0.57200
C2362       C  0.66395188  0.92102405  0.47303450     0.27000
C2363       C  0.66408642  0.92084630  0.03193420     0.27000
C2364       C  0.66428129  0.58225843  0.47351335     0.27000
C2365       C  0.66386931  0.58214603  0.03250461     0.27000
C2366       C  0.66655435  0.97081550  0.42612688     0.35600
C2367       C  0.66707369  0.53253380  0.42635935     0.35600
C2368       C  0.66300853  0.97032323  0.07980259     0.35600
C2369       C  0.66287996  0.53220509  0.08002892     0.35600
C2370       C  0.67680392  0.88543314  0.48363770    -0.21900
C2371       C  0.67691058  0.88531869  0.02102009    -0.21900
C2372       C  0.67589761  0.61818076  0.48440124    -0.21900
C2373       C  0.67567765  0.61810384  0.02181380    -0.21900
C2374       C  0.67933689  0.98203187  0.39241212    -0.22900
C2375       C  0.67962955  0.52139241  0.39254856    -0.22900
C2376       C  0.66866071  0.98147086  0.11522411    -0.22900
C2377       C  0.66852497  0.52078708  0.11537865    -0.22900
C2378       C  0.66000504  0.93280627  0.43679281    -0.18300
C2379       C  0.65929629  0.93206997  0.06826816    -0.18300
C2380       C  0.65900748  0.57056020  0.06879332    -0.18300
C2381       C  0.66080435  0.57056214  0.43713824    -0.18300
H2382       H  0.68643904  0.86254521  0.46618453     0.14600
H2383       H  0.68648945  0.86223824  0.03827479     0.14600
H2384       H  0.68485707  0.64149099  0.46712242     0.14600
H2385       H  0.68432269  0.64140738  0.03923454     0.14600
H2386       H  0.68861039  0.96368015  0.37054501     0.12900
H2387       H  0.68905783  0.53979634  0.37076962     0.12900
H2388       H  0.67383305  0.96300923  0.13817673     0.12900
H2389       H  0.67351439  0.53908486  0.13848549     0.12900
H2390       H  0.64495636  0.96978536  0.00266582     0.26200
H2391       H  0.64661468  0.53283837  0.00282846     0.26200
N2392       N  0.93794387  0.65933949  0.00250306    -0.36600
N2393       N  0.99661757  0.66280430  0.05813155    -0.57200
N2394       N  0.55566668  0.65849167  0.00293981    -0.36600
N2395       N  0.99694458  0.66285922  0.44740579    -0.57200
C2396       C  0.91599977  0.66625219  0.03189337     0.27000
C2397       C  0.91614385  0.66566723  0.47290901     0.27000
C2398       C  0.57721047  0.66596988  0.03246016     0.27000
C2399       C  0.57739582  0.66600341  0.47356141     0.27000
C2400       C  0.96569667  0.66922367  0.07906367     0.35600
C2401       C  0.52743280  0.66866686  0.07934260     0.35600
C2402       C  0.96610555  0.66446549  0.42543063     0.35600
C2403       C  0.52796082  0.66462923  0.42568521     0.35600
C2404       C  0.88008161  0.67782525  0.02095630    -0.21900
C2405       C  0.88018207  0.67750433  0.48354543    -0.21900
C2406       C  0.61271660  0.67903971  0.02184277    -0.21900
C2407       C  0.61283188  0.67909115  0.48445895    -0.21900
C2408       C  0.97682734  0.68187141  0.11284921    -0.22900
C2409       C  0.51619601  0.68155601  0.11301538    -0.22900
C2410       C  0.97753133  0.66998771  0.39006984    -0.22900
C2411       C  0.51683348  0.67014007  0.39024043    -0.22900
C2412       C  0.92766977  0.66285648  0.06827781    -0.18300
C2413       C  0.92775105  0.66068387  0.43664603    -0.18300
C2414       C  0.56620415  0.66107004  0.43723554    -0.18300
C2415       C  0.56544422  0.66201733  0.06870285    -0.18300
H2416       H  0.85675870  0.68681787  0.03819924     0.14600
H2417       H  0.85689111  0.68609864  0.46608792     0.14600
H2418       H  0.63554334  0.68884278  0.03928465     0.14600
H2419       H  0.63584992  0.68879548  0.46719206     0.14600
H2420       H  0.95841231  0.69133391  0.13460481     0.12900
H2421       H  0.53453632  0.69085076  0.13488338     0.12900
H2422       H  0.95924180  0.67493380  0.36694959     0.12900
H2423       H  0.53530380  0.67527486  0.36728825     0.12900
H2424       H  0.96544064  0.64851686  0.00266830     0.26200
H2425       H  0.52856433  0.64661349  0.00286396     0.26200
C2426       C  0.85105633  0.64525080  0.14212255     0.86500
C2427       C  0.87727444  0.66909409  0.11720063    -0.53700
C2428       C  0.89999040  0.64733857  0.09534349     0.09400
C2429       C  0.89434297  0.60388920  0.10070530     0.20400
C2430       C  0.82848208  0.61886262  0.11628831    -0.54500
C2431       C  0.85130379  0.59704381  0.09461879     0.09500
C2432       C  0.87796467  0.61855358  0.16321523    -0.54000
C2433       C  0.90056350  0.59673176  0.14156764     0.10100
H2434       H  0.87771236  0.70012401  0.11676472     0.14600
H2435       H  0.91294621  0.58610569  0.08305490     0.00300
H2436       H  0.79751568  0.61724308  0.11541003     0.14900
H2437       H  0.87905894  0.61707225  0.19259645     0.14700
N2438       N  0.83971949  0.55745829  0.00256628    -0.36600
N2439       N  0.83556729  0.99841118  0.44735695    -0.57200
N2440       N  0.83890261  0.93972667  0.00296332    -0.36600
N2441       N  0.83519214  0.99874049  0.05808316    -0.57200
C2442       C  0.83229671  0.57900785  0.47303458     0.27000
C2443       C  0.83221698  0.57920582  0.03192879     0.27000
C2444       C  0.83203629  0.91779738  0.47355142     0.27000
C2445       C  0.83247390  0.91792658  0.03254051     0.27000
C2446       C  0.82972217  0.52922936  0.42614617     0.35600
C2447       C  0.82921467  0.96750833  0.42639001     0.35600
C2448       C  0.83341269  0.52976338  0.07980465     0.35600
C2449       C  0.83351388  0.96787975  0.08004014     0.35600
C2450       C  0.81926087  0.61453387  0.48362948    -0.21900
C2451       C  0.81919025  0.61466115  0.02101295    -0.21900
C2452       C  0.82038448  0.88189043  0.48445940    -0.21900
C2453       C  0.82062080  0.88197762  0.02187280    -0.21900
C2454       C  0.81692917  0.51801176  0.39243883    -0.22900
C2455       C  0.81664202  0.97864872  0.39258287    -0.22900
C2456       C  0.82779227  0.51861756  0.11523177    -0.22900
C2457       C  0.82791071  0.97930064  0.11539245    -0.22900
C2458       C  0.83629425  0.56723581  0.43680122    -0.18300
C2459       C  0.83711270  0.56801742  0.06825698    -0.18300
C2460       C  0.83738274  0.92952083  0.06881706    -0.18300
C2461       C  0.83552300  0.92948116  0.43717310    -0.18300
H2462       H  0.80949700  0.63736732  0.46617216     0.14600
H2463       H  0.80951419  0.63769916  0.03826713     0.14600
H2464       H  0.81139651  0.85858605  0.46719286     0.14600
H2465       H  0.81196209  0.85868819  0.03931003     0.14600
H2466       H  0.80765715  0.53636424  0.37056825     0.12900
H2467       H  0.80721827  0.96024254  0.37080899     0.12900
H2468       H  0.82264561  0.53708271  0.13818296     0.12900
H2469       H  0.82294092  0.96100280  0.13850761     0.12900
H2470       H  0.85156440  0.53034133  0.00266332     0.26200
H2471       H  0.84975973  0.96721352  0.00283726     0.26200
C2472       C  0.66594101  0.67210461  0.66731729     0.42500
N2473       N  0.70229440  0.68359474  0.71290463     0.01400
C2474       C  0.70458839  0.84579041  0.81955836    -0.06500
H2475       H  0.72255588  0.86913712  0.67883452     0.06800
C2476       C  0.84404089  0.79370749  0.68602038    -0.06900
Co2477     Co  0.67842058  0.75378151  0.75296156     0.74200
N2478       N  0.70968410  0.82084745  0.71298106    -0.26100
Co2479     Co  0.75200329  0.81988397  0.75257647     0.74100
C2480       C  0.83060678  0.82802065  0.66739267     0.42600
N2481       N  0.81506447  0.70420168  0.71314569     0.01000
N2482       N  0.79424006  0.81649403  0.71295812     0.01100
N2483       N  0.65707932  0.80215412  0.81911997    -0.46900
H2484       H  0.62797036  0.72417389  0.68016723     0.06800
N2485       N  0.68147462  0.79588042  0.71314556     0.01400
N2486       N  0.79408129  0.81680805  0.79241309     0.01100
C2487       C  0.82973163  0.82828679  0.83851964     0.42700
N2488       N  0.78684677  0.67924332  0.71296929    -0.25500
C2489       C  0.65343769  0.70640252  0.82035645    -0.06400
N2490       N  0.69612900  0.65888303  0.68637779    -0.46600
N2491       N  0.80005409  0.84169255  0.81884045    -0.46800
C2492       C  0.66672292  0.67173079  0.83845007     0.42500
N2493       N  0.68180789  0.79599838  0.79260390     0.01300
N2494       N  0.78676295  0.67877573  0.79212964    -0.25500
N2495       N  0.67703019  0.71152546  0.71337222    -0.26000
N2496       N  0.81468841  0.70404607  0.79260137     0.01000
H2497       H  0.77412247  0.62970101  0.82533026     0.06900
H2498       H  0.86727409  0.77566270  0.82676284     0.06900
N2499       N  0.70972927  0.82127344  0.79214793    -0.26100
N2500       N  0.81951100  0.78856838  0.71342160    -0.25700
N2501       N  0.70241152  0.68323033  0.79236862     0.01400
C2502       C  0.66994239  0.83157258  0.66707734     0.42700
C2503       C  0.79191483  0.65522223  0.68515063    -0.06900
N2504       N  0.81903444  0.78858757  0.79258285    -0.25700
H2505       H  0.86859131  0.77595405  0.68022955     0.06900
N2506       N  0.65656845  0.80186486  0.68673834    -0.46900
H2507       H  0.77395478  0.63098201  0.67880915     0.06900
C2508       C  0.82617820  0.66768695  0.83818382     0.42600
C2509       C  0.65251443  0.70641141  0.68595763    -0.06400
Co2510     Co  0.74451108  0.68018212  0.75254503     0.73800
N2511       N  0.83997211  0.69822106  0.68673529    -0.46600
C2512       C  0.67027738  0.83234670  0.83818692     0.42800
N2513       N  0.69641327  0.65832885  0.81878332    -0.46600
Co2514     Co  0.81810272  0.74628385  0.75298358     0.73900
C2515       C  0.84304036  0.79362995  0.82041781    -0.06900
C2516       C  0.70460723  0.84488410  0.68516902    -0.06500
N2517       N  0.67746484  0.71145559  0.79253806    -0.26000
N2518       N  0.80040806  0.84122416  0.68644418    -0.46800
H2519       H  0.72233658  0.87034398  0.82535497     0.06900
C2520       C  0.79187952  0.65425179  0.81954070    -0.06900
Cl2521     Cl  0.74826004  0.75003300  0.75276357    -0.49900
C2522       C  0.82658365  0.66852963  0.66706403     0.42600
H2523       H  0.62920317  0.72437181  0.82669260     0.06800
N2524       N  0.83939741  0.69788104  0.81912829    -0.46600
C2525       C  0.85304043  0.85278243  0.86340824     0.86500
C2526       C  0.87939070  0.83024495  0.88930390    -0.53700
C2527       C  0.90121488  0.85311274  0.91092506     0.09400
C2528       C  0.89443952  0.89613876  0.90472009     0.20400
C2529       C  0.82922578  0.87908111  0.88827141    -0.54500
C2530       C  0.85100465  0.90181325  0.91008967     0.09500
C2531       C  0.87977162  0.87960843  0.84225101    -0.54000
C2532       C  0.90161539  0.90224697  0.86383708     0.10100
H2533       H  0.88098117  0.79927701  0.89025793     0.14600
H2534       H  0.91223740  0.91476932  0.92233021     0.00300
H2535       H  0.79819868  0.87952965  0.88872663     0.14900
H2536       H  0.88124272  0.88063474  0.81286684     0.14700
C2537       C  0.85072494  0.64425827  0.86288890     0.86500
C2538       C  0.87814615  0.61834654  0.84153985    -0.53700
C2539       C  0.90095623  0.59654460  0.86298713     0.09400
C2540       C  0.89395639  0.60243682  0.90392163     0.20400
C2541       C  0.82811076  0.61722356  0.88803374    -0.54500
C2542       C  0.85080883  0.59523696  0.90958916     0.09500
C2543       C  0.87653982  0.66779326  0.88848112    -0.54000
C2544       C  0.89928023  0.64569638  0.91007920     0.10100
H2545       H  0.87921578  0.61714133  0.81214463     0.14600
H2546       H  0.91250643  0.58441603  0.92140684     0.00300
H2547       H  0.79713326  0.61577735  0.88898340     0.14900
H2548       H  0.87702990  0.69881064  0.88923249     0.14700
C2549       C  0.64570450  0.85576435  0.86288899     0.86500
C2550       C  0.66828399  0.88283423  0.88802397    -0.53700
C2551       C  0.64555065  0.90480119  0.90956821     0.09400
C2552       C  0.60241946  0.89755831  0.90389765     0.20400
C2553       C  0.61991055  0.83221298  0.88850090    -0.54500
C2554       C  0.59715169  0.85429482  0.91009711     0.09500
C2555       C  0.61826427  0.88164733  0.84152592    -0.54000
C2556       C  0.59543652  0.90344595  0.86295704     0.10100
H2557       H  0.69925943  0.88430739  0.88898437     0.14600
H2558       H  0.58384529  0.91556740  0.92136910     0.00300
H2559       H  0.61945502  0.80119554  0.88927039     0.14900
H2560       H  0.61720964  0.88285215  0.81213002     0.14700
C2561       C  0.64338945  0.64723948  0.86333028     0.86500
C2562       C  0.61703573  0.66979100  0.88921136    -0.53700
C2563       C  0.59519936  0.64693475  0.91083895     0.09400
C2564       C  0.60194452  0.60390600  0.90463637     0.20400
C2565       C  0.66717653  0.62093886  0.88821560    -0.54500
C2566       C  0.64536846  0.59822526  0.91003345     0.09500
C2567       C  0.61666221  0.62041621  0.84216811    -0.54000
C2568       C  0.59479712  0.59778231  0.86374912     0.10100
H2569       H  0.61546586  0.70075996  0.89016454     0.14600
H2570       H  0.58412738  0.58528591  0.92224461     0.00300
H2571       H  0.69820322  0.62048051  0.88869082     0.14900
H2572       H  0.61521405  0.61938573  0.81278366     0.14700
N2573       N  0.99839386  0.94122680  0.85312633    -0.36600
N2574       N  0.55621234  0.50040149  0.84841306    -0.57200
N2575       N  0.99802286  0.55878901  0.85311854    -0.36600
N2576       N  0.94020253  0.49961055  0.84850697    -0.57200
C2577       C  0.52940731  0.92069327  0.84347390     0.27000
C2578       C  0.96746752  0.92026184  0.84402507     0.27000
C2579       C  0.52893746  0.57975340  0.84396997     0.27000
C2580       C  0.96699398  0.57931258  0.84348461     0.27000
C2581       C  0.57921614  0.96978529  0.84478243     0.35600
C2582       C  0.57908464  0.53121206  0.84538921     0.35600
C2583       C  0.91732709  0.96880411  0.84551196     0.35600
C2584       C  0.91719099  0.53021841  0.84488541     0.35600
C2585       C  0.51821426  0.88701285  0.82710767    -0.21900
C2586       C  0.97879088  0.88675267  0.82743340    -0.21900
C2587       C  0.51759069  0.61325290  0.82736958    -0.21900
C2588       C  0.97816606  0.61298473  0.82708132    -0.21900
C2589       C  0.61593811  0.98106215  0.83655856    -0.22900
C2590       C  0.61585125  0.52031074  0.83694616    -0.22900
C2591       C  0.88055132  0.97969840  0.83710489    -0.22900
C2592       C  0.88046107  0.51894134  0.83670428    -0.22900
C2593       C  0.56747738  0.93179454  0.84891462    -0.18300
C2594       C  0.92936565  0.93096523  0.84997369    -0.18300
C2595       C  0.92892854  0.56820588  0.84896814    -0.18300
C2596       C  0.56704939  0.56905590  0.84987943    -0.18300
H2597       H  0.53658657  0.86543728  0.81537339     0.14600
H2598       H  0.96049818  0.86496032  0.81595389     0.14300
H2599       H  0.53586914  0.63504327  0.81585906     0.14600
H2600       H  0.95977940  0.63454965  0.81534776     0.14600
H2601       H  0.63967291  0.96276743  0.82947040     0.12900
H2602       H  0.63946857  0.53887124  0.83013562     0.12900
H2603       H  0.85693424  0.96113440  0.83030977     0.12900
H2604       H  0.85672334  0.53723334  0.82961909     0.12900
H2605       H  0.99837140  0.96694497  0.86723140     0.26200
H2606       H  0.99806742  0.53307788  0.86724084     0.26200
C2607       C  0.85399106  0.85255898  0.64263509     0.86500
C2608       C  0.83040165  0.87829693  0.61701034    -0.53700
C2609       C  0.85244186  0.90104805  0.59536677     0.09400
C2610       C  0.89571718  0.89578023  0.60149711     0.20400
C2611       C  0.88105077  0.82993696  0.61752673    -0.54500
C2612       C  0.90300309  0.85262642  0.59592870     0.09500
C2613       C  0.87987580  0.88006117  0.66391728    -0.54000
C2614       C  0.90162881  0.90286096  0.64240821     0.10100
H2615       H  0.79938483  0.87875220  0.61629352     0.14600
H2616       H  0.91369848  0.91432759  0.58396984     0.00300
H2617       H  0.88254667  0.79895798  0.61663933     0.14900
H2618       H  0.88111476  0.88117831  0.69330945     0.14700
C2619       C  0.64544293  0.85485662  0.64216177     0.86500
C2620       C  0.61921679  0.83101957  0.61724359    -0.53700
C2621       C  0.59649238  0.85278215  0.59539526     0.09400
C2622       C  0.60211714  0.89622729  0.60078683     0.20400
C2623       C  0.66799278  0.88125849  0.61631872    -0.54500
C2624       C  0.64514529  0.90307423  0.59467071     0.09500
C2625       C  0.61854187  0.88153974  0.66328209    -0.54000
C2626       C  0.59592581  0.90337320  0.64165862     0.10100
H2627       H  0.61878915  0.79998974  0.61679690     0.14600
H2628       H  0.58350101  0.91401665  0.58315268     0.00300
H2629       H  0.69895850  0.88287529  0.61540419     0.14900
H2630       H  0.61747316  0.88301109  0.69266435     0.14700
N2631       N  0.55853982  0.84081575  0.50255028    -0.36600
N2632       N  0.99986005  0.83733209  0.55817691    -0.57200
N2633       N  0.94080959  0.84152201  0.50299224    -0.36600
N2634       N  0.99950023  0.83717963  0.94746502    -0.57200
C2635       C  0.58044589  0.83378000  0.53194567     0.27000
C2636       C  0.58028545  0.83429199  0.97295300     0.27000
C2637       C  0.91925558  0.83411158  0.53251966     0.27000
C2638       C  0.91904817  0.83406432  0.97363061     0.27000
C2639       C  0.53077188  0.83098318  0.57913575     0.35600
C2640       C  0.96904332  0.83150084  0.57939913     0.35600
C2641       C  0.53033319  0.83555169  0.92548165     0.35600
C2642       C  0.96847726  0.83541557  0.92575063     0.35600
C2643       C  0.61627562  0.82193080  0.52100810    -0.21900
C2644       C  0.61616539  0.82220849  0.98359236    -0.21900
C2645       C  0.88371022  0.82113324  0.52192656    -0.21900
C2646       C  0.88358082  0.82107353  0.98454540    -0.21900
C2647       C  0.51963926  0.81841185  0.61294854    -0.22900
C2648       C  0.98027484  0.81869905  0.61310317    -0.22900
C2649       C  0.51889999  0.83001876  0.89012679    -0.22900
C2650       C  0.97959770  0.82988015  0.89030847    -0.22900
C2651       C  0.56879927  0.83728216  0.56833356    -0.18300
C2652       C  0.56869077  0.83929887  0.93668427    -0.18300
C2653       C  0.93023208  0.83898781  0.93730622    -0.18300
C2654       C  0.93102924  0.83809258  0.56874802    -0.18300
H2655       H  0.63954276  0.81279863  0.53825359     0.14600
H2656       H  0.63939383  0.81343574  0.96613682     0.14600
H2657       H  0.86086313  0.81140133  0.53938389     0.14600
H2658       H  0.86053059  0.81143083  0.96729198     0.14600
H2659       H  0.53805147  0.80899322  0.63472260     0.12900
H2660       H  0.96193164  0.80942734  0.63498166     0.12900
H2661       H  0.53718406  0.82505324  0.86700498     0.12900
H2662       H  0.96112180  0.82473191  0.86736652     0.12900
H2663       H  0.53111608  0.85183965  0.50270716     0.26200
H2664       H  0.96793825  0.85333477  0.50290200     0.26200
C2665       C  0.64252226  0.64756544  0.64258510     0.86500
C2666       C  0.66607470  0.62179850  0.61695646    -0.53700
C2667       C  0.64399966  0.59904626  0.59534994     0.09400
C2668       C  0.60073580  0.60433940  0.60151583     0.20400
C2669       C  0.61544734  0.67018533  0.61747754    -0.54500
C2670       C  0.59346605  0.64749373  0.59590870     0.09500
C2671       C  0.61664584  0.62008453  0.66391017    -0.54000
C2672       C  0.59486938  0.59727634  0.64243890     0.10100
H2673       H  0.69709046  0.62132810  0.61620818     0.14600
H2674       H  0.58272876  0.58578992  0.58402063     0.00300
H2675       H  0.61397479  0.70116429  0.61656142     0.14900
H2676       H  0.61543253  0.61898420  0.69330445     0.14700
N2677       N  0.93946673  0.99992422  0.65210311    -0.36600
N2678       N  0.99859222  0.94208088  0.65685137    -0.57200
N2679       N  0.55705021  0.50020988  0.65222586    -0.36600
N2680       N  0.99791708  0.55805300  0.65685337    -0.57200
C2681       C  0.91890051  0.96892486  0.66174050     0.27000
C2682       C  0.91853517  0.53085969  0.66123386     0.27000
C2683       C  0.57798654  0.96927012  0.66134454     0.27000
C2684       C  0.57761359  0.53121554  0.66184607     0.27000
C2685       C  0.96796185  0.91909293  0.66045768     0.35600
C2686       C  0.52937360  0.91917869  0.65989974     0.35600
C2687       C  0.96712966  0.58096317  0.65979061     0.35600
C2688       C  0.52853876  0.58105148  0.66045371     0.35600
C2689       C  0.88522511  0.98013569  0.67810225    -0.21900
C2690       C  0.88500603  0.51955840  0.67780225    -0.21900
C2691       C  0.61152272  0.98057670  0.67789430    -0.21900
C2692       C  0.61129855  0.52000326  0.67819184    -0.21900
C2693       C  0.97919705  0.88235896  0.66867755    -0.22900
C2694       C  0.51843572  0.88241651  0.66832109    -0.22900
C2695       C  0.97804870  0.61774752  0.66813568    -0.22900
C2696       C  0.51728513  0.61780826  0.66855533    -0.22900
C2697       C  0.92998758  0.93084906  0.65633878    -0.18300
C2698       C  0.92928139  0.56895429  0.65534489    -0.18300
C2699       C  0.56652317  0.56929475  0.65641621    -0.18300
C2700       C  0.56723105  0.93116989  0.65546424    -0.18300
H2701       H  0.86364260  0.96177545  0.68984571     0.14600
H2702       H  0.86324100  0.53786626  0.68930659     0.14600
H2703       H  0.63329972  0.96227077  0.68938317     0.14600
H2704       H  0.63289067  0.53836405  0.68991284     0.14600
H2705       H  0.96087756  0.85863920  0.67575926     0.12900
H2706       H  0.53696748  0.85878629  0.67515431     0.12900
H2707       H  0.95950249  0.64139036  0.67488819     0.12900
H2708       H  0.53559050  0.64154773  0.67560377     0.12900
H2709       H  0.96519297  0.99993753  0.63800871     0.26200
H2710       H  0.53132073  0.50019636  0.63814288     0.26200
N2711       N  0.65666396  0.94261460  0.50256610    -0.36600
N2712       N  0.66071037  0.50163422  0.94733119    -0.57200
N2713       N  0.65744731  0.56033475  0.50293945    -0.36600
N2714       N  0.66118188  0.50134481  0.55808145    -0.57200
C2715       C  0.66395161  0.92102453  0.97303449     0.27000
C2716       C  0.66408664  0.92084584  0.53193429     0.27000
C2717       C  0.66428121  0.58225833  0.97351346     0.27000
C2718       C  0.66386941  0.58214620  0.53250458     0.27000
C2719       C  0.66655404  0.97081581  0.92612702     0.35600
C2720       C  0.66707359  0.53253369  0.92635940     0.35600
C2721       C  0.66300850  0.97032321  0.57980256     0.35600
C2722       C  0.66288003  0.53220505  0.58002874     0.35600
C2723       C  0.67680369  0.88543369  0.98363771    -0.21900
C2724       C  0.67691081  0.88531814  0.52102022    -0.21900
C2725       C  0.67589764  0.61818074  0.98440139    -0.21900
C2726       C  0.67567767  0.61810383  0.52181354    -0.21900
C2727       C  0.67933660  0.98203262  0.89241270    -0.22900
C2728       C  0.67962946  0.52139199  0.89254869    -0.22900
C2729       C  0.66866065  0.98147096  0.61522410    -0.22900
C2730       C  0.66852487  0.52078689  0.61537832    -0.22900
C2731       C  0.66000491  0.93280654  0.93679274    -0.18300
C2732       C  0.65929629  0.93206986  0.56826819    -0.18300
C2733       C  0.65900756  0.57056025  0.56879329    -0.18300
C2734       C  0.66080450  0.57056209  0.93713829    -0.18300
H2735       H  0.68643848  0.86254549  0.96618457     0.14600
H2736       H  0.68648898  0.86223756  0.53827495     0.14600
H2737       H  0.68485706  0.64149082  0.96712245     0.14600
H2738       H  0.68432292  0.64140752  0.53923412     0.14600
H2739       H  0.68860987  0.96368046  0.87054536     0.12900
H2740       H  0.68905760  0.53979567  0.87076938     0.12900
H2741       H  0.67383253  0.96300934  0.63817677     0.12900
H2742       H  0.67351457  0.53908482  0.63848516     0.12900
H2743       H  0.64495697  0.96978505  0.50266589     0.26200
H2744       H  0.64661533  0.53283858  0.50282859     0.26200
N2745       N  0.93794364  0.65933970  0.50250307    -0.36600
N2746       N  0.99661740  0.66280421  0.55813161    -0.57200
N2747       N  0.55566651  0.65849162  0.50293989    -0.36600
N2748       N  0.99694455  0.66285920  0.94740557    -0.57200
C2749       C  0.91599926  0.66625243  0.53189339     0.27000
C2750       C  0.91614438  0.66566696  0.97290914     0.27000
C2751       C  0.57721026  0.66596972  0.53246022     0.27000
C2752       C  0.57739617  0.66600362  0.97356117     0.27000
C2753       C  0.96569641  0.66922366  0.57906369     0.35600
C2754       C  0.52743265  0.66866669  0.57934234     0.35600
C2755       C  0.96610552  0.66446556  0.92543042     0.35600
C2756       C  0.52796071  0.66462928  0.92568524     0.35600
C2757       C  0.88008110  0.67782546  0.52095624    -0.21900
C2758       C  0.88018278  0.67750409  0.98354568    -0.21900
C2759       C  0.61271665  0.67903973  0.52184332    -0.21900
C2760       C  0.61283224  0.67909144  0.98445838    -0.21900
C2761       C  0.97682687  0.68187147  0.61284930    -0.22900
C2762       C  0.51619549  0.68155570  0.61301467    -0.22900
C2763       C  0.97753096  0.66998777  0.89006944    -0.22900
C2764       C  0.51683312  0.67014011  0.89024059    -0.22900
C2765       C  0.92766948  0.66285657  0.56827778    -0.18300
C2766       C  0.92775119  0.66068390  0.93664601    -0.18300
C2767       C  0.56620411  0.66107007  0.93723544    -0.18300
C2768       C  0.56544417  0.66201728  0.56870285    -0.18300
H2769       H  0.85675848  0.68681808  0.53819931     0.14600
H2770       H  0.85689173  0.68609857  0.96608795     0.14600
H2771       H  0.63554346  0.68884210  0.53928515     0.14600
H2772       H  0.63585017  0.68879582  0.96719162     0.14600
H2773       H  0.95841190  0.69133404  0.63460463     0.12900
H2774       H  0.53453607  0.69085073  0.63488284     0.12900
H2775       H  0.95924134  0.67493392  0.86694955     0.12900
H2776       H  0.53530339  0.67527514  0.86728827     0.12900
H2777       H  0.96544014  0.64851724  0.50266848     0.26200
H2778       H  0.52856372  0.64661349  0.50286396     0.26200
C2779       C  0.85105628  0.64525087  0.64212228     0.86500
C2780       C  0.87727448  0.66909415  0.61720057    -0.53700
C2781       C  0.89999045  0.64733855  0.59534345     0.09400
C2782       C  0.89434317  0.60388903  0.60070494     0.20400
C2783       C  0.82848210  0.61886260  0.61628818    -0.54500
C2784       C  0.85130382  0.59704374  0.59461866     0.09500
C2785       C  0.87796463  0.61855362  0.66321445    -0.54000
C2786       C  0.90056357  0.59673175  0.64156722     0.10100
H2787       H  0.87771192  0.70012405  0.61676427     0.14600
H2788       H  0.91294628  0.58610577  0.58305451     0.00300
H2789       H  0.79751562  0.61724339  0.61540954     0.14900
H2790       H  0.87905826  0.61707165  0.69259594     0.14700
N2791       N  0.83971950  0.55745870  0.50256627    -0.36600
N2792       N  0.83556739  0.99841121  0.94735727    -0.57200
N2793       N  0.83890271  0.93972704  0.50296330    -0.36600
N2794       N  0.83519199  0.99874044  0.55808306    -0.57200
C2795       C  0.83229684  0.57900751  0.97303467     0.27000
C2796       C  0.83221698  0.57920611  0.53192874     0.27000
C2797       C  0.83203609  0.91779714  0.97355138     0.27000
C2798       C  0.83247404  0.91792674  0.53254051     0.27000
C2799       C  0.82972234  0.52922933  0.92614643     0.35600
C2800       C  0.82921475  0.96750840  0.92639037     0.35600
C2801       C  0.83341273  0.52976322  0.57980434     0.35600
C2802       C  0.83351380  0.96787973  0.58004014     0.35600
C2803       C  0.81926114  0.61453318  0.98362980    -0.21900
C2804       C  0.81919007  0.61466160  0.52101304    -0.21900
C2805       C  0.82038431  0.88188999  0.98445903    -0.21900
C2806       C  0.82062095  0.88197777  0.52187292    -0.21900
C2807       C  0.81692941  0.51801161  0.89243941    -0.22900
C2808       C  0.81664247  0.97864907  0.89258352    -0.22900
C2809       C  0.82779245  0.51861702  0.61523118    -0.22900
C2810       C  0.82791071  0.97930064  0.61539249    -0.22900
C2811       C  0.83629426  0.56723581  0.93680124    -0.18300
C2812       C  0.83711270  0.56801740  0.56825688    -0.18300
C2813       C  0.83738274  0.92952081  0.56881706    -0.18300
C2814       C  0.83552305  0.92948122  0.93717320    -0.18300
H2815       H  0.80949717  0.63736708  0.96617253     0.14600
H2816       H  0.80951408  0.63769910  0.53826759     0.14600
H2817       H  0.81139615  0.85858595  0.96719250     0.14600
H2818       H  0.81196220  0.85868812  0.53931003     0.14600
H2819       H  0.80765715  0.53636414  0.87056867     0.12900
H2820       H  0.80721857  0.96024289  0.87080927     0.12900
H2821       H  0.82264534  0.53708214  0.63818272     0.12900
H2822       H  0.82294113  0.96100285  0.63850780     0.12900
H2823       H  0.85156449  0.53034180  0.50266330     0.26200
H2824       H  0.84975972  0.96721398  0.50283714     0.26200
loop_ 
_geom_bond_atom_site_label_1 
_geom_bond_atom_site_label_2 
_geom_bond_distance 
_geom_bond_site_symmetry_2 
_ccdc_geom_bond_type 
C1           N19   1.351       .  A
C1           C38   1.461       .  S
C1          C194   1.497       .  S
N2           N19   1.324       .  A
N2           N24   1.318       .  A
N2          Co39   2.083       .  S
C3           N28   1.339       .  A
C3           C41   1.461       .  S
C3           H48   1.082       .  S
H4           C45   1.081       .  S
C5           N29   1.339       .  A
C5            C9   1.461       .  S
C5           H34   1.082       .  S
Co6          N24   2.079       .  S
Co6          N14   2.083       .  S
Co6          N46   2.080       .  S
Co6          N22   2.083       .  S
Co6         Cl50   2.447       .  S
N7           C45   1.339       .  A
N7           N14   1.318       .  A
N7           Co8   2.081       .  S
Co8          N11   2.082       .  S
Co8          N28   2.079       .  S
Co8          N15   2.084       .  S
Co8         Cl50   2.448       .  S
C9           N47   1.351       .  A
C9          C136   1.497       .  S
N10          N17   1.318       .  A
N10          N40   1.324       .  A
N10         Co43   2.084       .  S
N11          N29   1.318       .  A
N11          N47   1.324       .  A
N12          C41   1.351       .  A
N12          N22   1.324       .  A
H13          C38   1.082       .  S
N14          N35   1.324       .  A
N15          N33   1.318       .  A
N15          N20   1.324       .  A
C16          N20   1.351       .  A
C16          C44   1.461       .  S
C16          C54   1.498       .  S
N17          C32   1.339       .  A
N17         Co39   2.081       .  S
C18          N46   1.339       .  A
C18          C21   1.461       .  S
C18          H52   1.081       .  S
C21          N42   1.351       .  A
C21          C90   1.498       .  S
N22          N28   1.318       .  A
N23          C49   1.339       .  A
N23          N25   1.318       .  A
N23         Co39   2.079       .  S
N24          C38   1.339       .  A
N25          N53   1.324       .  A
N25         Co43   2.082       .  S
H26          C49   1.082       .  S
H27          C44   1.081       .  S
N29         Co43   2.079       .  S
N30          N42   1.324       .  A
N30          N46   1.318       .  A
N30         Co39   2.084       .  S
C31          N35   1.351       .  A
C31          C45   1.461       .  S
C31         C148   1.498       .  S
C32          C51   1.461       .  S
C32          H36   1.081       .  S
N33          C44   1.339       .  A
N33         Co43   2.081       .  S
C37          N53   1.351       .  A
C37          C49   1.461       .  S
C37          C66   1.497       .  S
Co39        Cl50   2.448       .  S
N40          C51   1.351       .  A
C41          C78   1.497       .  S
Co43        Cl50   2.448       .  S
C51         C308   1.498       .  S
C54          C55   1.545       .  S
C54          C60   1.538       .  S
C54          C58   1.544       .  S
C55          H62   1.086       .  S
C55          C56   1.364       .  D
C56          C57   1.541       .  S
C56         C182   1.491       .  S
C57          C61   1.544       .  S
C57          C59   1.546       .  S
C57          H63   1.111       .  S
C58          H64   1.086       .  S
C58          C59   1.365       .  D
C59         C343   1.493       .  S
C60          H65   1.086       .  S
C60          C61   1.359       .  D
C61         C123   1.488       .  S
C66          C67   1.537       .  S
C66          C72   1.545       .  S
C66          C70   1.543       .  S
C67          H74   1.086       .  S
C67          C68   1.359       .  D
C68          C69   1.544       .  S
C68         C124   1.486       .  S
C69          C73   1.542       .  S
C69          C71   1.545       .  S
C69          H75   1.111       .  S
C70          H76   1.086       .  S
C70          C71   1.362       .  D
C71         C340   1.492       .  S
C72          H77   1.086       .  S
C72          C73   1.366       .  D
C73         C295   1.493       .  S
C78          C79   1.543       .  S
C78          C84   1.538       .  S
C78          C82   1.545       .  S
C79          H86   1.086       .  S
C79          C80   1.362       .  D
C80          C81   1.545       .  S
C80         C260   1.492       .  S
C81          C85   1.544       .  S
C81          C83   1.542       .  S
C81          H87   1.111       .  S
C82          H88   1.086       .  S
C82          C83   1.366       .  D
C83         C181   1.493       .  S
C84          H89   1.086       .  S
C84          C85   1.359       .  D
C85         C122   1.487       .  S
C90          C91   1.545       .  S
C90          C96   1.538       .  S
C90          C94   1.544       .  S
C91          H98   1.086       .  S
C91          C92   1.364       .  D
C92          C93   1.541       .  S
C92         C296   1.491       .  S
C93          C97   1.545       .  S
C93          C95   1.545       .  S
C93          H99   1.111       .  S
C94         H100   1.086       .  S
C94          C95   1.365       .  D
C95         C263   1.493       .  S
C96         H101   1.086       .  S
C96          C97   1.359       .  D
C97         C125   1.488       .  S
N102        C107   1.350       .  A
N102       C1518   1.349       .  A
N102        H134   1.040       .  S
N103        C111   1.347       .  A
N103        C816   1.347   1_545  A
N104        C109   1.349       .  A
N104       C1520   1.350       .  A
N104        H135   1.040       .  S
N105        C113   1.347   1_565  A
N105        C818   1.347       .  A
C106       N1514   1.349   1_455  A
C106        C114   1.381       .  A
C106        C122   1.402       .  A
C107        C123   1.402       .  A
C107        C115   1.381       .  A
C108       N1516   1.350   1_455  A
C108        C116   1.381       .  A
C108        C125   1.402       .  A
C109        C124   1.402       .  A
C109        C117   1.381       .  A
C110        N809   1.347       .  A
C110        C122   1.400       .  A
C110        C118   1.378       .  A
C111        C125   1.399       .  A
C111        C119   1.378       .  A
C112        N811   1.347       .  A
C112        C120   1.378       .  A
C112        C123   1.399       .  A
C113        C121   1.378       .  A
C113        C124   1.399       .  A
C114        H126   1.082       .  S
C114       C1527   1.380   1_455  A
C115        H127   1.082       .  S
C115       C1526   1.380       .  A
C116        H128   1.082       .  S
C116       C1529   1.380   1_455  A
C117        H129   1.082       .  S
C117       C1528   1.380       .  A
C118        H130   1.081       .  S
C118        C825   1.373       .  A
C119        H131   1.081       .  S
C119        C824   1.373   1_545  A
C120        H132   1.081       .  S
C120        C827   1.373       .  A
C121        H133   1.081       .  S
C121        C826   1.373   1_545  A
C136        C137   1.545       .  S
C136        C142   1.537       .  S
C136        C140   1.543       .  S
C137        H144   1.086       .  S
C137        C138   1.366       .  D
C138        C139   1.542       .  S
C138        C342   1.493       .  S
C139        C143   1.544       .  S
C139        C141   1.545       .  S
C139        H145   1.111       .  S
C140        H146   1.086       .  S
C140        C141   1.362       .  D
C141        C183   1.492       .  S
C142        H147   1.086       .  S
C142        C143   1.359       .  D
C143        C226   1.486       .  S
C148        C149   1.544       .  S
C148        C154   1.538       .  S
C148        C152   1.545       .  S
C149        H156   1.086       .  S
C149        C150   1.365       .  D
C150        C151   1.546       .  S
C150        C180   1.494       .  S
C151        C155   1.544       .  S
C151        C153   1.541       .  S
C151        H157   1.111       .  S
C152        H158   1.086       .  S
C152        C153   1.364       .  D
C153        C261   1.491       .  S
C154        H159   1.086       .  S
C154        C155   1.359       .  D
C155        C229   1.488       .  S
N160        C164   1.351       .  A
N160        C518   1.351   1_554  A
N160        H192   1.034       .  S
N161        C169   1.348       .  A
N161       C1580   1.348       .  A
N162        C166   1.350       .  A
N162        C520   1.350   1_554  A
N162        H193   1.035       .  S
N163        C171   1.351       .  A
N163       C1582   1.351       .  A
C164        C172   1.381       .  A
C164        C180   1.409       .  A
C165        N513   1.351       .  A
C165        C181   1.410       .  A
C165        C173   1.382       .  A
C166        C174   1.381       .  A
C166        C183   1.406       .  A
C167        N515   1.350       .  A
C167        C182   1.407       .  A
C167        C175   1.382       .  A
C168       N1573   1.348   1_455  A
C168        C180   1.406       .  A
C168        C176   1.379       .  A
C169        C183   1.406       .  A
C169        C177   1.379       .  A
C170       N1575   1.351   1_455  A
C170        C178   1.379       .  A
C170        C181   1.411       .  A
C171        C179   1.378       .  A
C171        C182   1.410       .  A
C172        H184   1.082       .  S
C172        C526   1.381   1_554  A
C173        H185   1.082       .  S
C173        C525   1.381       .  A
C174        H186   1.082       .  S
C174        C528   1.380   1_554  A
C175        H187   1.082       .  S
C175        C527   1.380       .  A
C176        H188   1.081       .  S
C176       C1589   1.378   1_455  A
C177        H189   1.081       .  S
C177       C1588   1.378       .  A
C178        H190   1.081       .  S
C178       C1591   1.375   1_455  A
C179        H191   1.081       .  S
C179       C1590   1.375       .  A
C194        C195   1.545       .  S
C194        C200   1.537       .  S
C194        C198   1.544       .  S
C195        H202   1.086       .  S
C195        C196   1.366       .  D
C196        C197   1.542       .  S
C196        C262   1.493       .  S
C197        C201   1.544       .  S
C197        C199   1.545       .  S
C197        H203   1.111       .  S
C198        H204   1.086       .  S
C198        C199   1.362       .  D
C199        C297   1.493       .  S
C200        H205   1.086       .  S
C200        C201   1.359       .  D
C201        C228   1.486       .  S
N206        C210   1.349       .  A
N206        C917   1.350       .  A
N206        H238   1.040       .  S
N207        C214   1.347       .  A
N207       C1627   1.347       .  A
N208        C213   1.349       .  A
N208        C918   1.350   1_545  A
N208        H239   1.040       .  S
N209        C216   1.347       .  A
N209       C1629   1.347       .  A
C210        C218   1.381       .  A
C210        C226   1.402       .  A
C211        N912   1.350   1_545  A
C211        C227   1.402       .  A
C211        C219   1.381       .  A
C212        N914   1.350       .  A
C212        C220   1.381       .  A
C212        C229   1.402       .  A
C213        C228   1.402       .  A
C213        C221   1.381       .  A
C214        C226   1.399       .  A
C214        C222   1.378       .  A
C215       N1619   1.347   1_455  A
C215        C229   1.399       .  A
C215        C223   1.378       .  A
C216        C224   1.378       .  A
C216        C227   1.399       .  A
C217       N1621   1.347   1_455  A
C217        C225   1.378       .  A
C217        C228   1.399       .  A
C218        H230   1.082       .  S
C218        C925   1.379       .  A
C219        H231   1.082       .  S
C219        C924   1.379   1_545  A
C220        H232   1.082       .  S
C220        C927   1.380       .  A
C221        H233   1.082       .  S
C221        C926   1.380   1_545  A
C222        H234   1.081       .  S
C222       C1635   1.373       .  A
C223        H235   1.081       .  S
C223       C1634   1.373   1_455  A
C224        H236   1.081       .  S
C224       C1637   1.373       .  A
C225        H237   1.081       .  S
C225       C1636   1.373   1_455  A
C227        C315   1.488       .  S
N240        C245   1.350       .  A
N240        C597   1.351   1_554  A
N240        H272   1.035       .  S
N241        C249   1.348       .  A
N241        C954   1.348   1_545  A
N242        C247   1.351       .  A
N242        C599   1.351   1_554  A
N242        H273   1.034       .  S
N243        C251   1.351       .  A
N243        C956   1.351   1_545  A
C244        N593   1.351       .  A
C244        C252   1.381       .  A
C244        C260   1.406       .  A
C245        C261   1.407       .  A
C245        C253   1.382       .  A
C246        N595   1.351       .  A
C246        C254   1.381       .  A
C246        C263   1.409       .  A
C247        C262   1.410       .  A
C247        C255   1.382       .  A
C248        N947   1.348       .  A
C248        C260   1.406       .  A
C248        C256   1.379       .  A
C249        C263   1.406       .  A
C249        C257   1.379       .  A
C250        N949   1.351       .  A
C250        C258   1.379       .  A
C250        C261   1.411       .  A
C251        C259   1.379       .  A
C251        C262   1.411       .  A
C252        H264   1.082       .  S
C252        C606   1.380       .  A
C253        H265   1.082       .  S
C253        C605   1.380   1_554  A
C254        H266   1.082       .  S
C254        C608   1.381       .  A
C255        H267   1.082       .  S
C255        C607   1.381   1_554  A
C256        H268   1.081       .  S
C256        C963   1.377       .  A
C257        H269   1.081       .  S
C257        C962   1.377   1_545  A
C258        H270   1.081       .  S
C258        C965   1.376       .  A
C259        H271   1.081       .  S
C259        C964   1.376   1_545  A
N274        C278   1.351       .  A
N274        C632   1.351   1_554  A
N274        H306   1.034       .  S
N275        C282   1.348       .  A
N275       C1695   1.348       .  A
N276        C280   1.351       .  A
N276        C634   1.350   1_554  A
N276        H307   1.035       .  S
N277        C284   1.351       .  A
N277       C1697   1.351       .  A
C278        C286   1.381       .  A
C278        C294   1.409       .  A
C279        N627   1.351       .  A
C279        C295   1.409       .  A
C279        C287   1.382       .  A
C280        C288   1.381       .  A
C280        C297   1.406       .  A
C281        N629   1.350       .  A
C281        C296   1.407       .  A
C281        C289   1.382       .  A
C282        C294   1.407       .  A
C282        C290   1.379       .  A
C283       N1687   1.348   1_455  A
C283        C297   1.406       .  A
C283        C291   1.379       .  A
C284        C292   1.379       .  A
C284        C295   1.411       .  A
C285       N1689   1.351   1_455  A
C285        C293   1.378       .  A
C285        C296   1.410       .  A
C286        H298   1.082       .  S
C286        C640   1.381   1_554  A
C287        H299   1.082       .  S
C287        C639   1.381       .  A
C288        H300   1.082       .  S
C288        C642   1.380   1_554  A
C289        H301   1.082       .  S
C289        C641   1.380       .  A
C290        H302   1.081       .  S
C290       C1703   1.378       .  A
C291        H303   1.081       .  S
C291       C1702   1.378   1_455  A
C292        H304   1.081       .  S
C292       C1705   1.375       .  A
C293        H305   1.081       .  S
C293       C1704   1.375   1_455  A
C294        C310   1.494       .  S
C308        C309   1.544       .  S
C308        C314   1.538       .  S
C308        C312   1.545       .  S
C309        H316   1.086       .  S
C309        C310   1.365       .  D
C310        C311   1.546       .  S
C311        C315   1.544       .  S
C311        C313   1.541       .  S
C311        H317   1.111       .  S
C312        H318   1.086       .  S
C312        C313   1.364       .  D
C313        C341   1.492       .  S
C314        H319   1.086       .  S
C314        C315   1.359       .  D
N320        C325   1.350       .  A
N320        C677   1.351   1_554  A
N320        H352   1.035       .  S
N321        C329   1.348       .  A
N321       C1034   1.348       .  A
N322        C327   1.351       .  A
N322        C679   1.351   1_554  A
N322        H353   1.034       .  S
N323        C331   1.351       .  A
N323       C1036   1.351       .  A
C324        N673   1.351       .  A
C324        C332   1.381       .  A
C324        C340   1.406       .  A
C325        C341   1.407       .  A
C325        C333   1.382       .  A
C326        N675   1.351       .  A
C326        C334   1.381       .  A
C326        C343   1.409       .  A
C327        C342   1.410       .  A
C327        C335   1.382       .  A
C328       N1027   1.348   1_545  A
C328        C340   1.406       .  A
C328        C336   1.379       .  A
C329        C343   1.406       .  A
C329        C337   1.379       .  A
C330       N1029   1.351   1_545  A
C330        C338   1.379       .  A
C330        C341   1.411       .  A
C331        C339   1.379       .  A
C331        C342   1.411       .  A
C332        H344   1.082       .  S
C332        C686   1.380       .  A
C333        H345   1.082       .  S
C333        C685   1.380   1_554  A
C334        H346   1.082       .  S
C334        C688   1.381       .  A
C335        H347   1.082       .  S
C335        C687   1.381   1_554  A
C336        H348   1.081       .  S
C336       C1043   1.377   1_545  A
C337        H349   1.081       .  S
C337       C1042   1.377       .  A
C338        H350   1.081       .  S
C338       C1045   1.376   1_545  A
C339        H351   1.081       .  S
C339       C1044   1.376       .  A
C354        N372   1.351       .  A
C354        C391   1.461       .  S
C354        C547   1.497       .  S
N355        N372   1.324       .  A
N355        N377   1.318       .  A
N355       Co392   2.083       .  S
C356        N381   1.339       .  A
C356        C394   1.461       .  S
C356        H401   1.082       .  S
H357        C398   1.081       .  S
C358        N382   1.339       .  A
C358        C362   1.461       .  S
C358        H387   1.082       .  S
Co359       N377   2.079       .  S
Co359       N367   2.083       .  S
Co359       N399   2.080       .  S
Co359       N375   2.083       .  S
Co359      Cl403   2.447       .  S
N360        C398   1.339       .  A
N360        N367   1.318       .  A
N360       Co361   2.081       .  S
Co361       N364   2.082       .  S
Co361       N381   2.079       .  S
Co361       N368   2.084       .  S
Co361      Cl403   2.448       .  S
C362        N400   1.351       .  A
C362        C489   1.497       .  S
N363        N370   1.318       .  A
N363        N393   1.324       .  A
N363       Co396   2.084       .  S
N364        N382   1.318       .  A
N364        N400   1.324       .  A
N365        C394   1.351       .  A
N365        N375   1.324       .  A
H366        C391   1.082       .  S
N367        N388   1.324       .  A
N368        N386   1.318       .  A
N368        N373   1.324       .  A
C369        N373   1.351       .  A
C369        C397   1.461       .  S
C369        C407   1.498       .  S
N370        C385   1.339       .  A
N370       Co392   2.081       .  S
C371        N399   1.339       .  A
C371        C374   1.461       .  S
C371        H405   1.081       .  S
C374        N395   1.351       .  A
C374        C443   1.498       .  S
N375        N381   1.318       .  A
N376        C402   1.339       .  A
N376        N378   1.318       .  A
N376       Co392   2.079       .  S
N377        C391   1.339       .  A
N378        N406   1.324       .  A
N378       Co396   2.082       .  S
H379        C402   1.082       .  S
H380        C397   1.081       .  S
N382       Co396   2.079       .  S
N383        N395   1.324       .  A
N383        N399   1.318       .  A
N383       Co392   2.084       .  S
C384        N388   1.351       .  A
C384        C398   1.461       .  S
C384        C501   1.498       .  S
C385        C404   1.461       .  S
C385        H389   1.081       .  S
N386        C397   1.339       .  A
N386       Co396   2.081       .  S
C390        N406   1.351       .  A
C390        C402   1.461       .  S
C390        C419   1.497       .  S
Co392      Cl403   2.448       .  S
N393        C404   1.351       .  A
C394        C431   1.497       .  S
Co396      Cl403   2.448       .  S
C404        C661   1.498       .  S
C407        C408   1.545       .  S
C407        C413   1.538       .  S
C407        C411   1.544       .  S
C408        H415   1.086       .  S
C408        C409   1.364       .  D
C409        C410   1.541       .  S
C409        C535   1.491       .  S
C410        C414   1.544       .  S
C410        C412   1.546       .  S
C410        H416   1.111       .  S
C411        H417   1.086       .  S
C411        C412   1.365       .  D
C412        C696   1.493       .  S
C413        H418   1.086       .  S
C413        C414   1.359       .  D
C414        C476   1.488       .  S
C419        C420   1.537       .  S
C419        C425   1.545       .  S
C419        C423   1.543       .  S
C420        H427   1.086       .  S
C420        C421   1.359       .  D
C421        C422   1.544       .  S
C421        C477   1.486       .  S
C422        C426   1.542       .  S
C422        C424   1.545       .  S
C422        H428   1.111       .  S
C423        H429   1.086       .  S
C423        C424   1.362       .  D
C424        C693   1.492       .  S
C425        H430   1.086       .  S
C425        C426   1.366       .  D
C426        C648   1.493       .  S
C431        C432   1.543       .  S
C431        C437   1.538       .  S
C431        C435   1.545       .  S
C432        H439   1.086       .  S
C432        C433   1.362       .  D
C433        C434   1.545       .  S
C433        C613   1.492       .  S
C434        C438   1.544       .  S
C434        C436   1.542       .  S
C434        H440   1.111       .  S
C435        H441   1.086       .  S
C435        C436   1.366       .  D
C436        C534   1.493       .  S
C437        H442   1.086       .  S
C437        C438   1.359       .  D
C438        C475   1.487       .  S
C443        C444   1.545       .  S
C443        C449   1.538       .  S
C443        C447   1.544       .  S
C444        H451   1.086       .  S
C444        C445   1.364       .  D
C445        C446   1.541       .  S
C445        C649   1.491       .  S
C446        C450   1.545       .  S
C446        C448   1.545       .  S
C446        H452   1.111       .  S
C447        H453   1.086       .  S
C447        C448   1.365       .  D
C448        C616   1.493       .  S
C449        H454   1.086       .  S
C449        C450   1.359       .  D
C450        C478   1.488       .  S
N455        C460   1.350       .  A
N455       C1871   1.349       .  A
N455        H487   1.040       .  S
N456       C1169   1.347   1_545  A
N456        C464   1.347       .  A
N457        C462   1.349       .  A
N457       C1873   1.350       .  A
N457        H488   1.040       .  S
N458       C1171   1.347       .  A
N458        C466   1.347   1_565  A
C459       N1867   1.349   1_455  A
C459        C467   1.381       .  A
C459        C475   1.402       .  A
C460        C476   1.402       .  A
C460        C468   1.381       .  A
C461       N1869   1.350   1_455  A
C461        C469   1.381       .  A
C461        C478   1.402       .  A
C462        C477   1.402       .  A
C462        C470   1.381       .  A
C463       N1162   1.347       .  A
C463        C475   1.400       .  A
C463        C471   1.378       .  A
C464        C478   1.399       .  A
C464        C472   1.378       .  A
C465       N1164   1.347       .  A
C465        C473   1.378       .  A
C465        C476   1.399       .  A
C466        C474   1.378       .  A
C466        C477   1.399       .  A
C467        H479   1.082       .  S
C467       C1880   1.380   1_455  A
C468        H480   1.082       .  S
C468       C1879   1.380       .  A
C469        H481   1.082       .  S
C469       C1882   1.380   1_455  A
C470        H482   1.082       .  S
C470       C1881   1.380       .  A
C471        H483   1.081       .  S
C471       C1178   1.373       .  A
C472        H484   1.081       .  S
C472       C1177   1.373   1_545  A
C473        H485   1.081       .  S
C473       C1180   1.373       .  A
C474        H486   1.081       .  S
C474       C1179   1.373   1_545  A
C489        C490   1.545       .  S
C489        C495   1.537       .  S
C489        C493   1.543       .  S
C490        H497   1.086       .  S
C490        C491   1.366       .  D
C491        C492   1.542       .  S
C491        C695   1.493       .  S
C492        C496   1.544       .  S
C492        C494   1.545       .  S
C492        H498   1.111       .  S
C493        H499   1.086       .  S
C493        C494   1.362       .  D
C494        C536   1.492       .  S
C495        H500   1.086       .  S
C495        C496   1.359       .  D
C496        C579   1.486       .  S
C501        C502   1.544       .  S
C501        C507   1.538       .  S
C501        C505   1.545       .  S
C502        H509   1.086       .  S
C502        C503   1.365       .  D
C503        C504   1.546       .  S
C503        C533   1.494       .  S
C504        C508   1.544       .  S
C504        C506   1.541       .  S
C504        H510   1.111       .  S
C505        H511   1.086       .  S
C505        C506   1.364       .  D
C506        C614   1.491       .  S
C507        H512   1.086       .  S
C507        C508   1.359       .  D
C508        C582   1.488       .  S
N513        C517   1.351       .  A
N513        H545   1.034       .  S
N514       C1933   1.348       .  A
N514        C522   1.348       .  A
N515        C519   1.350       .  A
N515        H546   1.035       .  S
N516       C1935   1.351       .  A
N516        C524   1.351       .  A
C517        C525   1.381       .  A
C517        C533   1.409       .  A
C518        C534   1.410       .  A
C518        C526   1.382       .  A
C519        C527   1.381       .  A
C519        C536   1.406       .  A
C520        C535   1.407       .  A
C520        C528   1.382       .  A
C521       N1926   1.348   1_455  A
C521        C533   1.406       .  A
C521        C529   1.379       .  A
C522        C536   1.406       .  A
C522        C530   1.379       .  A
C523       N1928   1.351   1_455  A
C523        C531   1.379       .  A
C523        C534   1.411       .  A
C524        C532   1.378       .  A
C524        C535   1.410       .  A
C525        H537   1.082       .  S
C526        H538   1.082       .  S
C527        H539   1.082       .  S
C528        H540   1.082       .  S
C529        H541   1.081       .  S
C529       C1942   1.378   1_455  A
C530        H542   1.081       .  S
C530       C1941   1.378       .  A
C531        H543   1.081       .  S
C531       C1944   1.375   1_455  A
C532        H544   1.081       .  S
C532       C1943   1.375       .  A
C547        C548   1.545       .  S
C547        C553   1.537       .  S
C547        C551   1.544       .  S
C548        H555   1.086       .  S
C548        C549   1.366       .  D
C549        C550   1.542       .  S
C549        C615   1.493       .  S
C550        C554   1.544       .  S
C550        C552   1.545       .  S
C550        H556   1.111       .  S
C551        H557   1.086       .  S
C551        C552   1.362       .  D
C552        C650   1.493       .  S
C553        H558   1.086       .  S
C553        C554   1.359       .  D
C554        C581   1.486       .  S
N559       C1270   1.350       .  A
N559        C563   1.349       .  A
N559        H591   1.040       .  S
N560        C567   1.347       .  A
N560       C1980   1.347       .  A
N561        C566   1.349       .  A
N561       C1271   1.350   1_545  A
N561        H592   1.040       .  S
N562        C569   1.347       .  A
N562       C1982   1.347       .  A
C563        C571   1.381       .  A
C563        C579   1.402       .  A
C564       N1265   1.350   1_545  A
C564        C580   1.402       .  A
C564        C572   1.381       .  A
C565       N1267   1.350       .  A
C565        C573   1.381       .  A
C565        C582   1.402       .  A
C566        C581   1.402       .  A
C566        C574   1.381       .  A
C567        C579   1.399       .  A
C567        C575   1.378       .  A
C568       N1972   1.347   1_455  A
C568        C582   1.399       .  A
C568        C576   1.378       .  A
C569        C577   1.378       .  A
C569        C580   1.399       .  A
C570       N1974   1.347   1_455  A
C570        C578   1.378       .  A
C570        C581   1.399       .  A
C571        H583   1.082       .  S
C571       C1278   1.380       .  A
C572        H584   1.082       .  S
C572       C1277   1.379   1_545  A
C573        H585   1.082       .  S
C573       C1280   1.380       .  A
C574        H586   1.082       .  S
C574       C1279   1.380   1_545  A
C575        H587   1.081       .  S
C575       C1988   1.373       .  A
C576        H588   1.081       .  S
C576       C1987   1.373   1_455  A
C577        H589   1.081       .  S
C577       C1990   1.373       .  A
C578        H590   1.081       .  S
C578       C1989   1.373   1_455  A
C580        C668   1.488       .  S
N593        C598   1.350       .  A
N593        H625   1.035       .  S
N594       C1307   1.348   1_545  A
N594        C602   1.348       .  A
N595        C600   1.351       .  A
N595        H626   1.034       .  S
N596       C1309   1.351   1_545  A
N596        C604   1.351       .  A
C597        C605   1.381       .  A
C597        C613   1.406       .  A
C598        C614   1.407       .  A
C598        C606   1.382       .  A
C599        C607   1.381       .  A
C599        C616   1.409       .  A
C600        C615   1.410       .  A
C600        C608   1.382       .  A
C601       N1300   1.348       .  A
C601        C613   1.406       .  A
C601        C609   1.379       .  A
C602        C616   1.406       .  A
C602        C610   1.379       .  A
C603       N1302   1.351       .  A
C603        C611   1.379       .  A
C603        C614   1.411       .  A
C604        C612   1.379       .  A
C604        C615   1.411       .  A
C605        H617   1.082       .  S
C606        H618   1.082       .  S
C607        H619   1.082       .  S
C608        H620   1.082       .  S
C609        H621   1.081       .  S
C609       C1316   1.377       .  A
C610        H622   1.081       .  S
C610       C1315   1.377   1_545  A
C611        H623   1.081       .  S
C611       C1318   1.376       .  A
C612        H624   1.081       .  S
C612       C1317   1.376   1_545  A
N627        C631   1.351       .  A
N627        H659   1.034       .  S
N628        C635   1.348       .  A
N628       C2048   1.348       .  A
N629        C633   1.351       .  A
N629        H660   1.035       .  S
N630        C637   1.351       .  A
N630       C2050   1.351       .  A
C631        C639   1.381       .  A
C631        C647   1.409       .  A
C632        C648   1.409       .  A
C632        C640   1.382       .  A
C633        C641   1.381       .  A
C633        C650   1.406       .  A
C634        C649   1.407       .  A
C634        C642   1.382       .  A
C635        C647   1.407       .  A
C635        C643   1.379       .  A
C636       N2040   1.348   1_455  A
C636        C650   1.406       .  A
C636        C644   1.379       .  A
C637        C645   1.379       .  A
C637        C648   1.411       .  A
C638       N2042   1.351   1_455  A
C638        C646   1.378       .  A
C638        C649   1.410       .  A
C639        H651   1.082       .  S
C640        H652   1.082       .  S
C641        H653   1.082       .  S
C642        H654   1.082       .  S
C643        H655   1.081       .  S
C643       C2056   1.378       .  A
C644        H656   1.081       .  S
C644       C2055   1.378   1_455  A
C645        H657   1.081       .  S
C645       C2058   1.375       .  A
C646        H658   1.081       .  S
C646       C2057   1.375   1_455  A
C647        C663   1.494       .  S
C661        C662   1.544       .  S
C661        C667   1.538       .  S
C661        C665   1.545       .  S
C662        H669   1.086       .  S
C662        C663   1.365       .  D
C663        C664   1.546       .  S
C664        C668   1.544       .  S
C664        C666   1.541       .  S
C664        H670   1.111       .  S
C665        H671   1.086       .  S
C665        C666   1.364       .  D
C666        C694   1.492       .  S
C667        H672   1.086       .  S
C667        C668   1.359       .  D
N673        C678   1.350       .  A
N673        H705   1.035       .  S
N674       C1387   1.348       .  A
N674        C682   1.348       .  A
N675        C680   1.351       .  A
N675        H706   1.034       .  S
N676       C1389   1.351       .  A
N676        C684   1.351       .  A
C677        C685   1.381       .  A
C677        C693   1.406       .  A
C678        C694   1.407       .  A
C678        C686   1.382       .  A
C679        C687   1.381       .  A
C679        C696   1.409       .  A
C680        C695   1.410       .  A
C680        C688   1.382       .  A
C681       N1380   1.348   1_545  A
C681        C693   1.406       .  A
C681        C689   1.379       .  A
C682        C696   1.406       .  A
C682        C690   1.379       .  A
C683       N1382   1.351   1_545  A
C683        C691   1.379       .  A
C683        C694   1.411       .  A
C684        C692   1.379       .  A
C684        C695   1.411       .  A
C685        H697   1.082       .  S
C686        H698   1.082       .  S
C687        H699   1.082       .  S
C688        H700   1.082       .  S
C689        H701   1.081       .  S
C689       C1396   1.377   1_545  A
C690        H702   1.081       .  S
C690       C1395   1.377       .  A
C691        H703   1.081       .  S
C691       C1398   1.376   1_545  A
C692        H704   1.081       .  S
C692       C1397   1.376       .  A
C707        N725   1.351       .  A
C707        C744   1.461       .  S
C707        C900   1.497       .  S
N708        N725   1.324       .  A
N708        N730   1.318       .  A
N708       Co745   2.083       .  S
C709        N734   1.339       .  A
C709        C747   1.461       .  S
C709        H754   1.082       .  S
H710        C751   1.081       .  S
C711        N735   1.339       .  A
C711        C715   1.461       .  S
C711        H740   1.082       .  S
Co712       N730   2.079       .  S
Co712       N720   2.083       .  S
Co712       N752   2.080       .  S
Co712       N728   2.083       .  S
Co712      Cl756   2.447       .  S
N713        C751   1.339       .  A
N713        N720   1.318       .  A
N713       Co714   2.081       .  S
Co714       N717   2.082       .  S
Co714       N734   2.079       .  S
Co714       N721   2.084       .  S
Co714      Cl756   2.448       .  S
C715        N753   1.351       .  A
C715        C842   1.497       .  S
N716        N723   1.318       .  A
N716        N746   1.324       .  A
N716       Co749   2.084       .  S
N717        N735   1.318       .  A
N717        N753   1.324       .  A
N718        C747   1.351       .  A
N718        N728   1.324       .  A
H719        C744   1.082       .  S
N720        N741   1.324       .  A
N721        N739   1.318       .  A
N721        N726   1.324       .  A
C722        N726   1.351       .  A
C722        C750   1.461       .  S
C722        C760   1.498       .  S
N723        C738   1.339       .  A
N723       Co745   2.081       .  S
C724        N752   1.339       .  A
C724        C727   1.461       .  S
C724        H758   1.081       .  S
C727        N748   1.351       .  A
C727        C796   1.498       .  S
N728        N734   1.318       .  A
N729        C755   1.339       .  A
N729        N731   1.318       .  A
N729       Co745   2.079       .  S
N730        C744   1.339       .  A
N731        N759   1.324       .  A
N731       Co749   2.082       .  S
H732        C755   1.082       .  S
H733        C750   1.081       .  S
N735       Co749   2.079       .  S
N736        N748   1.324       .  A
N736        N752   1.318       .  A
N736       Co745   2.084       .  S
C737        N741   1.351       .  A
C737        C751   1.461       .  S
C737        C854   1.498       .  S
C738        C757   1.461       .  S
C738        H742   1.081       .  S
N739        C750   1.339       .  A
N739       Co749   2.081       .  S
C743        N759   1.351       .  A
C743        C755   1.461       .  S
C743        C772   1.497       .  S
Co745      Cl756   2.448       .  S
N746        C757   1.351       .  A
C747        C784   1.497       .  S
Co749      Cl756   2.448       .  S
C757       C1014   1.498       .  S
C760        C761   1.545       .  S
C760        C766   1.538       .  S
C760        C764   1.544       .  S
C761        H768   1.086       .  S
C761        C762   1.364       .  D
C762        C763   1.541       .  S
C762        C888   1.491       .  S
C763        C767   1.544       .  S
C763        C765   1.546       .  S
C763        H769   1.111       .  S
C764        H770   1.086       .  S
C764        C765   1.365       .  D
C765       C1049   1.493       .  S
C766        H771   1.086       .  S
C766        C767   1.359       .  D
C767        C829   1.488       .  S
C772        C773   1.537       .  S
C772        C778   1.545       .  S
C772        C776   1.543       .  S
C773        H780   1.086       .  S
C773        C774   1.359       .  D
C774        C775   1.544       .  S
C774        C830   1.486       .  S
C775        C779   1.542       .  S
C775        C777   1.545       .  S
C775        H781   1.111       .  S
C776        H782   1.086       .  S
C776        C777   1.362       .  D
C777       C1046   1.492       .  S
C778        H783   1.086       .  S
C778        C779   1.366       .  D
C779       C1001   1.493       .  S
C784        C785   1.543       .  S
C784        C790   1.538       .  S
C784        C788   1.545       .  S
C785        H792   1.086       .  S
C785        C786   1.362       .  D
C786        C787   1.545       .  S
C786        C966   1.492       .  S
C787        C791   1.544       .  S
C787        C789   1.542       .  S
C787        H793   1.111       .  S
C788        H794   1.086       .  S
C788        C789   1.366       .  D
C789        C887   1.493       .  S
C790        H795   1.086       .  S
C790        C791   1.359       .  D
C791        C828   1.487       .  S
C796        C797   1.545       .  S
C796        C802   1.538       .  S
C796        C800   1.544       .  S
C797        H804   1.086       .  S
C797        C798   1.364       .  D
C798        C799   1.541       .  S
C798       C1002   1.491       .  S
C799        C803   1.545       .  S
C799        C801   1.545       .  S
C799        H805   1.111       .  S
C800        H806   1.086       .  S
C800        C801   1.365       .  D
C801        C969   1.493       .  S
C802        H807   1.086       .  S
C802        C803   1.359       .  D
C803        C831   1.488       .  S
N808        C813   1.350       .  A
N808       C2224   1.349       .  A
N808        H840   1.040       .  S
N809        C817   1.347       .  A
N810        C815   1.349       .  A
N810       C2226   1.350       .  A
N810        H841   1.040       .  S
N811        C819   1.347       .  A
C812       N2220   1.349   1_455  A
C812        C820   1.381       .  A
C812        C828   1.402       .  A
C813        C829   1.402       .  A
C813        C821   1.381       .  A
C814       N2222   1.350   1_455  A
C814        C822   1.381       .  A
C814        C831   1.402       .  A
C815        C830   1.402       .  A
C815        C823   1.381       .  A
C816        C828   1.400       .  A
C816        C824   1.378       .  A
C817        C831   1.399       .  A
C817        C825   1.378       .  A
C818        C826   1.378       .  A
C818        C829   1.399       .  A
C819        C827   1.378       .  A
C819        C830   1.399       .  A
C820        H832   1.082       .  S
C820       C2233   1.380   1_455  A
C821        H833   1.082       .  S
C821       C2232   1.380       .  A
C822        H834   1.082       .  S
C822       C2235   1.380   1_455  A
C823        H835   1.082       .  S
C823       C2234   1.380       .  A
C824        H836   1.081       .  S
C825        H837   1.081       .  S
C826        H838   1.081       .  S
C827        H839   1.081       .  S
C842        C843   1.545       .  S
C842        C848   1.537       .  S
C842        C846   1.543       .  S
C843        H850   1.086       .  S
C843        C844   1.366       .  D
C844        C845   1.542       .  S
C844       C1048   1.493       .  S
C845        C849   1.544       .  S
C845        C847   1.545       .  S
C845        H851   1.111       .  S
C846        H852   1.086       .  S
C846        C847   1.362       .  D
C847        C889   1.492       .  S
C848        H853   1.086       .  S
C848        C849   1.359       .  D
C849        C932   1.486       .  S
C854        C855   1.544       .  S
C854        C860   1.538       .  S
C854        C858   1.545       .  S
C855        H862   1.086       .  S
C855        C856   1.365       .  D
C856        C857   1.546       .  S
C856        C886   1.494       .  S
C857        C861   1.544       .  S
C857        C859   1.541       .  S
C857        H863   1.111       .  S
C858        H864   1.086       .  S
C858        C859   1.364       .  D
C859        C967   1.491       .  S
C860        H865   1.086       .  S
C860        C861   1.359       .  D
C861        C935   1.488       .  S
N866       C1224   1.351   1_554  A
N866        C870   1.351       .  A
N866        H898   1.034       .  S
N867       C2286   1.348       .  A
N867        C875   1.348       .  A
N868       C1226   1.350   1_554  A
N868        C872   1.350       .  A
N868        H899   1.035       .  S
N869       C2288   1.351       .  A
N869        C877   1.351       .  A
C870        C878   1.381       .  A
C870        C886   1.409       .  A
C871       N1219   1.351       .  A
C871        C887   1.410       .  A
C871        C879   1.382       .  A
C872        C880   1.381       .  A
C872        C889   1.406       .  A
C873       N1221   1.350       .  A
C873        C888   1.407       .  A
C873        C881   1.382       .  A
C874       N2279   1.348   1_455  A
C874        C886   1.406       .  A
C874        C882   1.379       .  A
C875        C889   1.406       .  A
C875        C883   1.379       .  A
C876       N2281   1.351   1_455  A
C876        C884   1.379       .  A
C876        C887   1.411       .  A
C877        C885   1.378       .  A
C877        C888   1.410       .  A
C878        H890   1.082       .  S
C878       C1232   1.381   1_554  A
C879        H891   1.082       .  S
C879       C1231   1.381       .  A
C880        H892   1.082       .  S
C880       C1234   1.380   1_554  A
C881        H893   1.082       .  S
C881       C1233   1.380       .  A
C882        H894   1.081       .  S
C882       C2295   1.378   1_455  A
C883        H895   1.081       .  S
C883       C2294   1.378       .  A
C884        H896   1.081       .  S
C884       C2297   1.375   1_455  A
C885        H897   1.081       .  S
C885       C2296   1.375       .  A
C900        C901   1.545       .  S
C900        C906   1.537       .  S
C900        C904   1.544       .  S
C901        H908   1.086       .  S
C901        C902   1.366       .  D
C902        C903   1.542       .  S
C902        C968   1.493       .  S
C903        C907   1.544       .  S
C903        C905   1.545       .  S
C903        H909   1.111       .  S
C904        H910   1.086       .  S
C904        C905   1.362       .  D
C905       C1003   1.493       .  S
C906        H911   1.086       .  S
C906        C907   1.359       .  D
C907        C934   1.486       .  S
N912        C916   1.349       .  A
N912        H944   1.040       .  S
N913        C920   1.347       .  A
N913       C2333   1.347       .  A
N914        C919   1.349       .  A
N914        H945   1.040       .  S
N915        C922   1.347       .  A
N915       C2335   1.347       .  A
C916        C924   1.381       .  A
C916        C932   1.402       .  A
C917        C933   1.402       .  A
C917        C925   1.381       .  A
C918        C926   1.381       .  A
C918        C935   1.402       .  A
C919        C934   1.402       .  A
C919        C927   1.381       .  A
C920        C932   1.399       .  A
C920        C928   1.378       .  A
C921       N2325   1.347   1_455  A
C921        C935   1.399       .  A
C921        C929   1.378       .  A
C922        C930   1.378       .  A
C922        C933   1.399       .  A
C923       N2327   1.347   1_455  A
C923        C931   1.378       .  A
C923        C934   1.399       .  A
C924        H936   1.082       .  S
C925        H937   1.082       .  S
C926        H938   1.082       .  S
C927        H939   1.082       .  S
C928        H940   1.081       .  S
C928       C2341   1.373       .  A
C929        H941   1.081       .  S
C929       C2340   1.373   1_455  A
C930        H942   1.081       .  S
C930       C2343   1.373       .  A
C931        H943   1.081       .  S
C931       C2342   1.373   1_455  A
C933       C1021   1.488       .  S
N946        C951   1.350       .  A
N946       C1303   1.351   1_554  A
N946        H978   1.035       .  S
N947        C955   1.348       .  A
N948        C953   1.351       .  A
N948       C1305   1.351   1_554  A
N948        H979   1.034       .  S
N949        C957   1.351       .  A
C950       N1299   1.351       .  A
C950        C958   1.381       .  A
C950        C966   1.406       .  A
C951        C967   1.407       .  A
C951        C959   1.382       .  A
C952       N1301   1.351       .  A
C952        C960   1.381       .  A
C952        C969   1.409       .  A
C953        C968   1.410       .  A
C953        C961   1.382       .  A
C954        C966   1.406       .  A
C954        C962   1.379       .  A
C955        C969   1.406       .  A
C955        C963   1.379       .  A
C956        C964   1.379       .  A
C956        C967   1.411       .  A
C957        C965   1.379       .  A
C957        C968   1.411       .  A
C958        H970   1.082       .  S
C958       C1312   1.380       .  A
C959        H971   1.082       .  S
C959       C1311   1.380   1_554  A
C960        H972   1.082       .  S
C960       C1314   1.381       .  A
C961        H973   1.082       .  S
C961       C1313   1.381   1_554  A
C962        H974   1.081       .  S
C963        H975   1.081       .  S
C964        H976   1.081       .  S
C965        H977   1.081       .  S
N980       C1338   1.351   1_554  A
N980        C984   1.351       .  A
N980       H1012   1.034       .  S
N981        C988   1.348       .  A
N981       C2401   1.348       .  A
N982       C1340   1.350   1_554  A
N982        C986   1.351       .  A
N982       H1013   1.035       .  S
N983        C990   1.351       .  A
N983       C2403   1.351       .  A
C984        C992   1.381       .  A
C984       C1000   1.409       .  A
C985       N1333   1.351       .  A
C985       C1001   1.409       .  A
C985        C993   1.382       .  A
C986        C994   1.381       .  A
C986       C1003   1.406       .  A
C987       N1335   1.350       .  A
C987       C1002   1.407       .  A
C987        C995   1.382       .  A
C988       C1000   1.407       .  A
C988        C996   1.379       .  A
C989       N2393   1.348   1_455  A
C989       C1003   1.406       .  A
C989        C997   1.379       .  A
C990        C998   1.379       .  A
C990       C1001   1.411       .  A
C991       N2395   1.351   1_455  A
C991        C999   1.378       .  A
C991       C1002   1.410       .  A
C992       H1004   1.082       .  S
C992       C1346   1.381   1_554  A
C993       H1005   1.082       .  S
C993       C1345   1.381       .  A
C994       H1006   1.082       .  S
C994       C1348   1.380   1_554  A
C995       H1007   1.082       .  S
C995       C1347   1.380       .  A
C996       H1008   1.081       .  S
C996       C2409   1.378       .  A
C997       H1009   1.081       .  S
C997       C2408   1.378   1_455  A
C998       H1010   1.081       .  S
C998       C2411   1.375       .  A
C999       H1011   1.081       .  S
C999       C2410   1.375   1_455  A
C1000      C1016   1.494       .  S
C1014      C1015   1.544       .  S
C1014      C1020   1.538       .  S
C1014      C1018   1.545       .  S
C1015      H1022   1.086       .  S
C1015      C1016   1.365       .  D
C1016      C1017   1.546       .  S
C1017      C1021   1.544       .  S
C1017      C1019   1.541       .  S
C1017      H1023   1.111       .  S
C1018      H1024   1.086       .  S
C1018      C1019   1.364       .  D
C1019      C1047   1.492       .  S
C1020      H1025   1.086       .  S
C1020      C1021   1.359       .  D
N1026      C1031   1.350       .  A
N1026      C1383   1.351   1_554  A
N1026      H1058   1.035       .  S
N1027      C1035   1.348       .  A
N1028      C1033   1.351       .  A
N1028      C1385   1.351   1_554  A
N1028      H1059   1.034       .  S
N1029      C1037   1.351       .  A
C1030      N1379   1.351       .  A
C1030      C1038   1.381       .  A
C1030      C1046   1.406       .  A
C1031      C1047   1.407       .  A
C1031      C1039   1.382       .  A
C1032      N1381   1.351       .  A
C1032      C1040   1.381       .  A
C1032      C1049   1.409       .  A
C1033      C1048   1.410       .  A
C1033      C1041   1.382       .  A
C1034      C1046   1.406       .  A
C1034      C1042   1.379       .  A
C1035      C1049   1.406       .  A
C1035      C1043   1.379       .  A
C1036      C1044   1.379       .  A
C1036      C1047   1.411       .  A
C1037      C1045   1.379       .  A
C1037      C1048   1.411       .  A
C1038      H1050   1.082       .  S
C1038      C1392   1.380       .  A
C1039      H1051   1.082       .  S
C1039      C1391   1.380   1_554  A
C1040      H1052   1.082       .  S
C1040      C1394   1.381       .  A
C1041      H1053   1.082       .  S
C1041      C1393   1.381   1_554  A
C1042      H1054   1.081       .  S
C1043      H1055   1.081       .  S
C1044      H1056   1.081       .  S
C1045      H1057   1.081       .  S
C1060      N1078   1.351       .  A
C1060      C1097   1.461       .  S
C1060      C1253   1.497       .  S
N1061      N1078   1.324       .  A
N1061      N1083   1.318       .  A
N1061     Co1098   2.083       .  S
C1062      N1087   1.339       .  A
C1062      C1100   1.461       .  S
C1062      H1107   1.082       .  S
H1063      C1104   1.081       .  S
C1064      N1088   1.339       .  A
C1064      C1068   1.461       .  S
C1064      H1093   1.082       .  S
Co1065     N1083   2.079       .  S
Co1065     N1073   2.083       .  S
Co1065     N1105   2.080       .  S
Co1065     N1081   2.083       .  S
Co1065    Cl1109   2.447       .  S
N1066      C1104   1.339       .  A
N1066      N1073   1.318       .  A
N1066     Co1067   2.081       .  S
Co1067     N1070   2.082       .  S
Co1067     N1087   2.079       .  S
Co1067     N1074   2.084       .  S
Co1067    Cl1109   2.448       .  S
C1068      N1106   1.351       .  A
C1068      C1195   1.497       .  S
N1069      N1076   1.318       .  A
N1069      N1099   1.324       .  A
N1069     Co1102   2.084       .  S
N1070      N1088   1.318       .  A
N1070      N1106   1.324       .  A
N1071      C1100   1.351       .  A
N1071      N1081   1.324       .  A
H1072      C1097   1.082       .  S
N1073      N1094   1.324       .  A
N1074      N1092   1.318       .  A
N1074      N1079   1.324       .  A
C1075      N1079   1.351       .  A
C1075      C1103   1.461       .  S
C1075      C1113   1.498       .  S
N1076      C1091   1.339       .  A
N1076     Co1098   2.081       .  S
C1077      N1105   1.339       .  A
C1077      C1080   1.461       .  S
C1077      H1111   1.081       .  S
C1080      N1101   1.351       .  A
C1080      C1149   1.498       .  S
N1081      N1087   1.318       .  A
N1082      C1108   1.339       .  A
N1082      N1084   1.318       .  A
N1082     Co1098   2.079       .  S
N1083      C1097   1.339       .  A
N1084      N1112   1.324       .  A
N1084     Co1102   2.082       .  S
H1085      C1108   1.082       .  S
H1086      C1103   1.081       .  S
N1088     Co1102   2.079       .  S
N1089      N1101   1.324       .  A
N1089      N1105   1.318       .  A
N1089     Co1098   2.084       .  S
C1090      N1094   1.351       .  A
C1090      C1104   1.461       .  S
C1090      C1207   1.498       .  S
C1091      C1110   1.461       .  S
C1091      H1095   1.081       .  S
N1092      C1103   1.339       .  A
N1092     Co1102   2.081       .  S
C1096      N1112   1.351       .  A
C1096      C1108   1.461       .  S
C1096      C1125   1.497       .  S
Co1098    Cl1109   2.448       .  S
N1099      C1110   1.351       .  A
C1100      C1137   1.497       .  S
Co1102    Cl1109   2.448       .  S
C1110      C1367   1.498       .  S
C1113      C1114   1.545       .  S
C1113      C1119   1.538       .  S
C1113      C1117   1.544       .  S
C1114      H1121   1.086       .  S
C1114      C1115   1.364       .  D
C1115      C1116   1.541       .  S
C1115      C1241   1.491       .  S
C1116      C1120   1.544       .  S
C1116      C1118   1.546       .  S
C1116      H1122   1.111       .  S
C1117      H1123   1.086       .  S
C1117      C1118   1.365       .  D
C1118      C1402   1.493       .  S
C1119      H1124   1.086       .  S
C1119      C1120   1.359       .  D
C1120      C1182   1.488       .  S
C1125      C1126   1.537       .  S
C1125      C1131   1.545       .  S
C1125      C1129   1.543       .  S
C1126      H1133   1.086       .  S
C1126      C1127   1.359       .  D
C1127      C1128   1.544       .  S
C1127      C1183   1.486       .  S
C1128      C1132   1.542       .  S
C1128      C1130   1.545       .  S
C1128      H1134   1.111       .  S
C1129      H1135   1.086       .  S
C1129      C1130   1.362       .  D
C1130      C1399   1.492       .  S
C1131      H1136   1.086       .  S
C1131      C1132   1.366       .  D
C1132      C1354   1.493       .  S
C1137      C1138   1.543       .  S
C1137      C1143   1.538       .  S
C1137      C1141   1.545       .  S
C1138      H1145   1.086       .  S
C1138      C1139   1.362       .  D
C1139      C1140   1.545       .  S
C1139      C1319   1.492       .  S
C1140      C1144   1.544       .  S
C1140      C1142   1.542       .  S
C1140      H1146   1.111       .  S
C1141      H1147   1.086       .  S
C1141      C1142   1.366       .  D
C1142      C1240   1.493       .  S
C1143      H1148   1.086       .  S
C1143      C1144   1.359       .  D
C1144      C1181   1.487       .  S
C1149      C1150   1.545       .  S
C1149      C1155   1.538       .  S
C1149      C1153   1.544       .  S
C1150      H1157   1.086       .  S
C1150      C1151   1.364       .  D
C1151      C1152   1.541       .  S
C1151      C1355   1.491       .  S
C1152      C1156   1.545       .  S
C1152      C1154   1.545       .  S
C1152      H1158   1.111       .  S
C1153      H1159   1.086       .  S
C1153      C1154   1.365       .  D
C1154      C1322   1.493       .  S
C1155      H1160   1.086       .  S
C1155      C1156   1.359       .  D
C1156      C1184   1.488       .  S
N1161      C1166   1.350       .  A
N1161      C2577   1.349       .  A
N1161      H1193   1.040       .  S
N1162      C1170   1.347       .  A
N1163      C1168   1.350       .  A
N1163      C2579   1.350       .  A
N1163      H1194   1.040       .  S
N1164      C1172   1.347       .  A
C1165      N2573   1.349   1_455  A
C1165      C1173   1.381       .  A
C1165      C1181   1.402       .  A
C1166      C1182   1.402       .  A
C1166      C1174   1.381       .  A
C1167      N2575   1.350   1_455  A
C1167      C1175   1.381       .  A
C1167      C1184   1.402       .  A
C1168      C1183   1.402       .  A
C1168      C1176   1.381       .  A
C1169      C1181   1.400       .  A
C1169      C1177   1.378       .  A
C1170      C1184   1.399       .  A
C1170      C1178   1.378       .  A
C1171      C1179   1.378       .  A
C1171      C1182   1.399       .  A
C1172      C1180   1.378       .  A
C1172      C1183   1.399       .  A
C1173      H1185   1.082       .  S
C1173      C2586   1.380   1_455  A
C1174      H1186   1.082       .  S
C1174      C2585   1.380       .  A
C1175      H1187   1.082       .  S
C1175      C2588   1.380   1_455  A
C1176      H1188   1.082       .  S
C1176      C2587   1.380       .  A
C1177      H1189   1.081       .  S
C1178      H1190   1.081       .  S
C1179      H1191   1.081       .  S
C1180      H1192   1.081       .  S
C1195      C1196   1.545       .  S
C1195      C1201   1.537       .  S
C1195      C1199   1.543       .  S
C1196      H1203   1.086       .  S
C1196      C1197   1.366       .  D
C1197      C1198   1.542       .  S
C1197      C1401   1.493       .  S
C1198      C1202   1.544       .  S
C1198      C1200   1.545       .  S
C1198      H1204   1.111       .  S
C1199      H1205   1.086       .  S
C1199      C1200   1.362       .  D
C1200      C1242   1.492       .  S
C1201      H1206   1.086       .  S
C1201      C1202   1.359       .  D
C1202      C1285   1.486       .  S
C1207      C1208   1.544       .  S
C1207      C1213   1.538       .  S
C1207      C1211   1.545       .  S
C1208      H1215   1.086       .  S
C1208      C1209   1.365       .  D
C1209      C1210   1.546       .  S
C1209      C1239   1.494       .  S
C1210      C1214   1.544       .  S
C1210      C1212   1.541       .  S
C1210      H1216   1.111       .  S
C1211      H1217   1.086       .  S
C1211      C1212   1.364       .  D
C1212      C1320   1.491       .  S
C1213      H1218   1.086       .  S
C1213      C1214   1.359       .  D
C1214      C1288   1.488       .  S
N1219      C1223   1.351       .  A
N1219      H1251   1.034       .  S
N1220      C2639   1.348       .  A
N1220      C1228   1.348       .  A
N1221      C1225   1.350       .  A
N1221      H1252   1.035       .  S
N1222      C2641   1.351       .  A
N1222      C1230   1.351       .  A
C1223      C1231   1.381       .  A
C1223      C1239   1.409       .  A
C1224      C1240   1.410       .  A
C1224      C1232   1.382       .  A
C1225      C1233   1.381       .  A
C1225      C1242   1.406       .  A
C1226      C1241   1.407       .  A
C1226      C1234   1.382       .  A
C1227      N2632   1.348   1_455  A
C1227      C1239   1.406       .  A
C1227      C1235   1.379       .  A
C1228      C1242   1.406       .  A
C1228      C1236   1.379       .  A
C1229      N2634   1.351   1_455  A
C1229      C1237   1.379       .  A
C1229      C1240   1.411       .  A
C1230      C1238   1.378       .  A
C1230      C1241   1.410       .  A
C1231      H1243   1.082       .  S
C1232      H1244   1.082       .  S
C1233      H1245   1.082       .  S
C1234      H1246   1.082       .  S
C1235      H1247   1.081       .  S
C1235      C2648   1.378   1_455  A
C1236      H1248   1.081       .  S
C1236      C2647   1.378       .  A
C1237      H1249   1.081       .  S
C1237      C2650   1.375   1_455  A
C1238      H1250   1.081       .  S
C1238      C2649   1.375       .  A
C1253      C1254   1.545       .  S
C1253      C1259   1.537       .  S
C1253      C1257   1.544       .  S
C1254      H1261   1.086       .  S
C1254      C1255   1.366       .  D
C1255      C1256   1.542       .  S
C1255      C1321   1.493       .  S
C1256      C1260   1.544       .  S
C1256      C1258   1.545       .  S
C1256      H1262   1.111       .  S
C1257      H1263   1.086       .  S
C1257      C1258   1.362       .  D
C1258      C1356   1.493       .  S
C1259      H1264   1.086       .  S
C1259      C1260   1.359       .  D
C1260      C1287   1.486       .  S
N1265      C1269   1.349       .  A
N1265      H1297   1.040       .  S
N1266      C1273   1.347       .  A
N1266      C2686   1.347       .  A
N1267      C1272   1.349       .  A
N1267      H1298   1.040       .  S
N1268      C1275   1.347       .  A
N1268      C2688   1.347       .  A
C1269      C1277   1.381       .  A
C1269      C1285   1.402       .  A
C1270      C1286   1.402       .  A
C1270      C1278   1.381       .  A
C1271      C1279   1.381       .  A
C1271      C1288   1.402       .  A
C1272      C1287   1.402       .  A
C1272      C1280   1.381       .  A
C1273      C1285   1.399       .  A
C1273      C1281   1.378       .  A
C1274      N2678   1.347   1_455  A
C1274      C1288   1.399       .  A
C1274      C1282   1.378       .  A
C1275      C1283   1.378       .  A
C1275      C1286   1.399       .  A
C1276      N2680   1.347   1_455  A
C1276      C1284   1.378       .  A
C1276      C1287   1.399       .  A
C1277      H1289   1.082       .  S
C1278      H1290   1.082       .  S
C1279      H1291   1.082       .  S
C1280      H1292   1.082       .  S
C1281      H1293   1.081       .  S
C1281      C2694   1.373       .  A
C1282      H1294   1.081       .  S
C1282      C2693   1.373   1_455  A
C1283      H1295   1.081       .  S
C1283      C2696   1.373       .  A
C1284      H1296   1.081       .  S
C1284      C2695   1.373   1_455  A
C1286      C1374   1.488       .  S
N1299      C1304   1.350       .  A
N1299      H1331   1.035       .  S
N1300      C1308   1.348       .  A
N1301      C1306   1.351       .  A
N1301      H1332   1.034       .  S
N1302      C1310   1.351       .  A
C1303      C1311   1.381       .  A
C1303      C1319   1.406       .  A
C1304      C1320   1.407       .  A
C1304      C1312   1.382       .  A
C1305      C1313   1.381       .  A
C1305      C1322   1.409       .  A
C1306      C1321   1.410       .  A
C1306      C1314   1.382       .  A
C1307      C1319   1.406       .  A
C1307      C1315   1.379       .  A
C1308      C1322   1.406       .  A
C1308      C1316   1.379       .  A
C1309      C1317   1.379       .  A
C1309      C1320   1.411       .  A
C1310      C1318   1.379       .  A
C1310      C1321   1.411       .  A
C1311      H1323   1.082       .  S
C1312      H1324   1.082       .  S
C1313      H1325   1.082       .  S
C1314      H1326   1.082       .  S
C1315      H1327   1.081       .  S
C1316      H1328   1.081       .  S
C1317      H1329   1.081       .  S
C1318      H1330   1.081       .  S
N1333      C1337   1.351       .  A
N1333      H1365   1.034       .  S
N1334      C1341   1.348       .  A
N1334      C2754   1.348       .  A
N1335      C1339   1.351       .  A
N1335      H1366   1.035       .  S
N1336      C1343   1.351       .  A
N1336      C2756   1.351       .  A
C1337      C1345   1.381       .  A
C1337      C1353   1.409       .  A
C1338      C1354   1.409       .  A
C1338      C1346   1.382       .  A
C1339      C1347   1.381       .  A
C1339      C1356   1.406       .  A
C1340      C1355   1.407       .  A
C1340      C1348   1.382       .  A
C1341      C1353   1.407       .  A
C1341      C1349   1.379       .  A
C1342      N2746   1.348   1_455  A
C1342      C1356   1.406       .  A
C1342      C1350   1.379       .  A
C1343      C1351   1.379       .  A
C1343      C1354   1.411       .  A
C1344      N2748   1.351   1_455  A
C1344      C1352   1.378       .  A
C1344      C1355   1.410       .  A
C1345      H1357   1.082       .  S
C1346      H1358   1.082       .  S
C1347      H1359   1.082       .  S
C1348      H1360   1.082       .  S
C1349      H1361   1.081       .  S
C1349      C2762   1.378       .  A
C1350      H1362   1.081       .  S
C1350      C2761   1.378   1_455  A
C1351      H1363   1.081       .  S
C1351      C2764   1.375       .  A
C1352      H1364   1.081       .  S
C1352      C2763   1.375   1_455  A
C1353      C1369   1.494       .  S
C1367      C1368   1.544       .  S
C1367      C1373   1.538       .  S
C1367      C1371   1.545       .  S
C1368      H1375   1.086       .  S
C1368      C1369   1.365       .  D
C1369      C1370   1.546       .  S
C1370      C1374   1.544       .  S
C1370      C1372   1.541       .  S
C1370      H1376   1.111       .  S
C1371      H1377   1.086       .  S
C1371      C1372   1.364       .  D
C1372      C1400   1.492       .  S
C1373      H1378   1.086       .  S
C1373      C1374   1.359       .  D
N1379      C1384   1.350       .  A
N1379      H1411   1.035       .  S
N1380      C1388   1.348       .  A
N1381      C1386   1.351       .  A
N1381      H1412   1.034       .  S
N1382      C1390   1.351       .  A
C1383      C1391   1.381       .  A
C1383      C1399   1.406       .  A
C1384      C1400   1.407       .  A
C1384      C1392   1.382       .  A
C1385      C1393   1.381       .  A
C1385      C1402   1.409       .  A
C1386      C1401   1.410       .  A
C1386      C1394   1.382       .  A
C1387      C1399   1.406       .  A
C1387      C1395   1.379       .  A
C1388      C1402   1.406       .  A
C1388      C1396   1.379       .  A
C1389      C1397   1.378       .  A
C1389      C1400   1.411       .  A
C1390      C1398   1.379       .  A
C1390      C1401   1.411       .  A
C1391      H1403   1.082       .  S
C1392      H1404   1.082       .  S
C1393      H1405   1.082       .  S
C1394      H1406   1.082       .  S
C1395      H1407   1.081       .  S
C1396      H1408   1.081       .  S
C1397      H1409   1.081       .  S
C1398      H1410   1.081       .  S
C1413      N1431   1.351       .  A
C1413      C1450   1.461       .  S
C1413      C1606   1.497       .  S
N1414      N1431   1.324       .  A
N1414      N1436   1.318       .  A
N1414     Co1451   2.083       .  S
C1415      N1440   1.339       .  A
C1415      C1453   1.461       .  S
C1415      H1460   1.082       .  S
H1416      C1457   1.081       .  S
C1417      N1441   1.339       .  A
C1417      C1421   1.461       .  S
C1417      H1446   1.082       .  S
Co1418     N1436   2.079       .  S
Co1418     N1426   2.083       .  S
Co1418     N1458   2.080       .  S
Co1418     N1434   2.083       .  S
Co1418    Cl1462   2.447       .  S
N1419      C1457   1.339       .  A
N1419      N1426   1.318       .  A
N1419     Co1420   2.081       .  S
Co1420     N1423   2.082       .  S
Co1420     N1440   2.079       .  S
Co1420     N1427   2.084       .  S
Co1420    Cl1462   2.448       .  S
C1421      N1459   1.351       .  A
C1421      C1548   1.497       .  S
N1422      N1429   1.318       .  A
N1422      N1452   1.324       .  A
N1422     Co1455   2.084       .  S
N1423      N1441   1.318       .  A
N1423      N1459   1.324       .  A
N1424      C1453   1.351       .  A
N1424      N1434   1.324       .  A
H1425      C1450   1.082       .  S
N1426      N1447   1.324       .  A
N1427      N1445   1.318       .  A
N1427      N1432   1.324       .  A
C1428      N1432   1.351       .  A
C1428      C1456   1.461       .  S
C1428      C1466   1.498       .  S
N1429      C1444   1.339       .  A
N1429     Co1451   2.081       .  S
C1430      N1458   1.339       .  A
C1430      C1433   1.461       .  S
C1430      H1464   1.081       .  S
C1433      N1454   1.351       .  A
C1433      C1502   1.498       .  S
N1434      N1440   1.318       .  A
N1435      C1461   1.339       .  A
N1435      N1437   1.318       .  A
N1435     Co1451   2.079       .  S
N1436      C1450   1.339       .  A
N1437      N1465   1.324       .  A
N1437     Co1455   2.082       .  S
H1438      C1461   1.082       .  S
H1439      C1456   1.081       .  S
N1441     Co1455   2.079       .  S
N1442      N1454   1.324       .  A
N1442      N1458   1.318       .  A
N1442     Co1451   2.084       .  S
C1443      N1447   1.351       .  A
C1443      C1457   1.461       .  S
C1443      C1560   1.498       .  S
C1444      C1463   1.461       .  S
C1444      H1448   1.081       .  S
N1445      C1456   1.339       .  A
N1445     Co1455   2.081       .  S
C1449      N1465   1.351       .  A
C1449      C1461   1.461       .  S
C1449      C1478   1.497       .  S
Co1451    Cl1462   2.448       .  S
N1452      C1463   1.351       .  A
C1453      C1490   1.497       .  S
Co1455    Cl1462   2.448       .  S
C1463      C1720   1.498       .  S
C1466      C1467   1.545       .  S
C1466      C1472   1.538       .  S
C1466      C1470   1.544       .  S
C1467      H1474   1.086       .  S
C1467      C1468   1.364       .  D
C1468      C1469   1.541       .  S
C1468      C1594   1.491       .  S
C1469      C1473   1.544       .  S
C1469      C1471   1.546       .  S
C1469      H1475   1.111       .  S
C1470      H1476   1.086       .  S
C1470      C1471   1.365       .  D
C1471      C1755   1.493       .  S
C1472      H1477   1.086       .  S
C1472      C1473   1.359       .  D
C1473      C1535   1.488       .  S
C1478      C1479   1.537       .  S
C1478      C1484   1.545       .  S
C1478      C1482   1.543       .  S
C1479      H1486   1.086       .  S
C1479      C1480   1.359       .  D
C1480      C1481   1.544       .  S
C1480      C1536   1.486       .  S
C1481      C1485   1.542       .  S
C1481      C1483   1.545       .  S
C1481      H1487   1.111       .  S
C1482      H1488   1.086       .  S
C1482      C1483   1.362       .  D
C1483      C1752   1.492       .  S
C1484      H1489   1.086       .  S
C1484      C1485   1.366       .  D
C1485      C1707   1.493       .  S
C1490      C1491   1.543       .  S
C1490      C1496   1.538       .  S
C1490      C1494   1.545       .  S
C1491      H1498   1.086       .  S
C1491      C1492   1.362       .  D
C1492      C1493   1.545       .  S
C1492      C1672   1.492       .  S
C1493      C1497   1.544       .  S
C1493      C1495   1.542       .  S
C1493      H1499   1.111       .  S
C1494      H1500   1.086       .  S
C1494      C1495   1.366       .  D
C1495      C1593   1.493       .  S
C1496      H1501   1.086       .  S
C1496      C1497   1.359       .  D
C1497      C1534   1.487       .  S
C1502      C1503   1.545       .  S
C1502      C1508   1.538       .  S
C1502      C1506   1.544       .  S
C1503      H1510   1.086       .  S
C1503      C1504   1.364       .  D
C1504      C1505   1.541       .  S
C1504      C1708   1.491       .  S
C1505      C1509   1.545       .  S
C1505      C1507   1.545       .  S
C1505      H1511   1.111       .  S
C1506      H1512   1.086       .  S
C1506      C1507   1.365       .  D
C1507      C1675   1.493       .  S
C1508      H1513   1.086       .  S
C1508      C1509   1.359       .  D
C1509      C1537   1.488       .  S
N1514      C1519   1.350       .  A
N1514      H1546   1.040       .  S
N1515      C2228   1.347   1_545  A
N1515      C1523   1.347       .  A
N1516      C1521   1.349       .  A
N1516      H1547   1.040       .  S
N1517      C2230   1.347       .  A
N1517      C1525   1.347   1_565  A
C1518      C1526   1.381       .  A
C1518      C1534   1.402       .  A
C1519      C1535   1.402       .  A
C1519      C1527   1.381       .  A
C1520      C1528   1.381       .  A
C1520      C1537   1.402       .  A
C1521      C1536   1.402       .  A
C1521      C1529   1.381       .  A
C1522      N2221   1.347       .  A
C1522      C1534   1.400       .  A
C1522      C1530   1.378       .  A
C1523      C1537   1.399       .  A
C1523      C1531   1.378       .  A
C1524      N2223   1.347       .  A
C1524      C1532   1.378       .  A
C1524      C1535   1.399       .  A
C1525      C1533   1.378       .  A
C1525      C1536   1.399       .  A
C1526      H1538   1.082       .  S
C1527      H1539   1.082       .  S
C1528      H1540   1.082       .  S
C1529      H1541   1.082       .  S
C1530      H1542   1.081       .  S
C1530      C2237   1.373       .  A
C1531      H1543   1.081       .  S
C1531      C2236   1.373   1_545  A
C1532      H1544   1.081       .  S
C1532      C2239   1.373       .  A
C1533      H1545   1.081       .  S
C1533      C2238   1.373   1_545  A
C1548      C1549   1.545       .  S
C1548      C1554   1.537       .  S
C1548      C1552   1.543       .  S
C1549      H1556   1.086       .  S
C1549      C1550   1.366       .  D
C1550      C1551   1.542       .  S
C1550      C1754   1.493       .  S
C1551      C1555   1.544       .  S
C1551      C1553   1.545       .  S
C1551      H1557   1.111       .  S
C1552      H1558   1.086       .  S
C1552      C1553   1.362       .  D
C1553      C1595   1.492       .  S
C1554      H1559   1.086       .  S
C1554      C1555   1.359       .  D
C1555      C1638   1.486       .  S
C1560      C1561   1.544       .  S
C1560      C1566   1.538       .  S
C1560      C1564   1.545       .  S
C1561      H1568   1.086       .  S
C1561      C1562   1.365       .  D
C1562      C1563   1.546       .  S
C1562      C1592   1.494       .  S
C1563      C1567   1.544       .  S
C1563      C1565   1.541       .  S
C1563      H1569   1.111       .  S
C1564      H1570   1.086       .  S
C1564      C1565   1.364       .  D
C1565      C1673   1.491       .  S
C1566      H1571   1.086       .  S
C1566      C1567   1.359       .  D
C1567      C1641   1.488       .  S
N1572      C1930   1.351   1_554  A
N1572      C1576   1.351       .  A
N1572      H1604   1.034       .  S
N1573      C1581   1.348       .  A
N1574      C1932   1.350   1_554  A
N1574      C1578   1.350       .  A
N1574      H1605   1.035       .  S
N1575      C1583   1.351       .  A
C1576      C1584   1.381       .  A
C1576      C1592   1.409       .  A
C1577      N1925   1.351       .  A
C1577      C1593   1.410       .  A
C1577      C1585   1.382       .  A
C1578      C1586   1.381       .  A
C1578      C1595   1.406       .  A
C1579      N1927   1.350       .  A
C1579      C1594   1.407       .  A
C1579      C1587   1.382       .  A
C1580      C1592   1.406       .  A
C1580      C1588   1.379       .  A
C1581      C1595   1.406       .  A
C1581      C1589   1.379       .  A
C1582      C1590   1.379       .  A
C1582      C1593   1.411       .  A
C1583      C1591   1.378       .  A
C1583      C1594   1.410       .  A
C1584      H1596   1.082       .  S
C1584      C1938   1.381   1_554  A
C1585      H1597   1.082       .  S
C1585      C1937   1.381       .  A
C1586      H1598   1.082       .  S
C1586      C1940   1.380   1_554  A
C1587      H1599   1.082       .  S
C1587      C1939   1.380       .  A
C1588      H1600   1.081       .  S
C1589      H1601   1.081       .  S
C1590      H1602   1.081       .  S
C1591      H1603   1.081       .  S
C1606      C1607   1.545       .  S
C1606      C1612   1.537       .  S
C1606      C1610   1.544       .  S
C1607      H1614   1.086       .  S
C1607      C1608   1.366       .  D
C1608      C1609   1.542       .  S
C1608      C1674   1.493       .  S
C1609      C1613   1.544       .  S
C1609      C1611   1.545       .  S
C1609      H1615   1.111       .  S
C1610      H1616   1.086       .  S
C1610      C1611   1.362       .  D
C1611      C1709   1.493       .  S
C1612      H1617   1.086       .  S
C1612      C1613   1.359       .  D
C1613      C1640   1.486       .  S
N1618      C2329   1.350       .  A
N1618      C1622   1.349       .  A
N1618      H1650   1.040       .  S
N1619      C1626   1.347       .  A
N1620      C1625   1.349       .  A
N1620      C2330   1.350   1_545  A
N1620      H1651   1.040       .  S
N1621      C1628   1.347       .  A
C1622      C1630   1.381       .  A
C1622      C1638   1.402       .  A
C1623      N2324   1.350   1_545  A
C1623      C1639   1.402       .  A
C1623      C1631   1.381       .  A
C1624      N2326   1.350       .  A
C1624      C1632   1.381       .  A
C1624      C1641   1.402       .  A
C1625      C1640   1.402       .  A
C1625      C1633   1.381       .  A
C1626      C1638   1.399       .  A
C1626      C1634   1.378       .  A
C1627      C1641   1.399       .  A
C1627      C1635   1.378       .  A
C1628      C1636   1.378       .  A
C1628      C1639   1.399       .  A
C1629      C1637   1.378       .  A
C1629      C1640   1.399       .  A
C1630      H1642   1.082       .  S
C1630      C2337   1.379       .  A
C1631      H1643   1.082       .  S
C1631      C2336   1.380   1_545  A
C1632      H1644   1.082       .  S
C1632      C2339   1.380       .  A
C1633      H1645   1.082       .  S
C1633      C2338   1.380   1_545  A
C1634      H1646   1.081       .  S
C1635      H1647   1.081       .  S
C1636      H1648   1.081       .  S
C1637      H1649   1.081       .  S
C1639      C1727   1.488       .  S
N1652      C1657   1.350       .  A
N1652      C2009   1.351   1_554  A
N1652      H1684   1.035       .  S
N1653      C2366   1.348   1_545  A
N1653      C1661   1.348       .  A
N1654      C1659   1.351       .  A
N1654      C2011   1.351   1_554  A
N1654      H1685   1.034       .  S
N1655      C2368   1.351   1_545  A
N1655      C1663   1.351       .  A
C1656      N2005   1.351       .  A
C1656      C1664   1.381       .  A
C1656      C1672   1.406       .  A
C1657      C1673   1.407       .  A
C1657      C1665   1.382       .  A
C1658      N2007   1.351       .  A
C1658      C1666   1.381       .  A
C1658      C1675   1.409       .  A
C1659      C1674   1.410       .  A
C1659      C1667   1.382       .  A
C1660      N2359   1.348       .  A
C1660      C1672   1.406       .  A
C1660      C1668   1.379       .  A
C1661      C1675   1.406       .  A
C1661      C1669   1.379       .  A
C1662      N2361   1.351       .  A
C1662      C1670   1.379       .  A
C1662      C1673   1.411       .  A
C1663      C1671   1.379       .  A
C1663      C1674   1.411       .  A
C1664      H1676   1.082       .  S
C1664      C2018   1.380       .  A
C1665      H1677   1.082       .  S
C1665      C2017   1.380   1_554  A
C1666      H1678   1.082       .  S
C1666      C2020   1.381       .  A
C1667      H1679   1.082       .  S
C1667      C2019   1.381   1_554  A
C1668      H1680   1.081       .  S
C1668      C2375   1.377       .  A
C1669      H1681   1.081       .  S
C1669      C2374   1.377   1_545  A
C1670      H1682   1.081       .  S
C1670      C2377   1.376       .  A
C1671      H1683   1.081       .  S
C1671      C2376   1.376   1_545  A
N1686      C2044   1.351   1_554  A
N1686      C1690   1.351       .  A
N1686      H1718   1.034       .  S
N1687      C1694   1.348       .  A
N1688      C2046   1.350   1_554  A
N1688      C1692   1.351       .  A
N1688      H1719   1.035       .  S
N1689      C1696   1.351       .  A
C1690      C1698   1.381       .  A
C1690      C1706   1.409       .  A
C1691      N2039   1.351       .  A
C1691      C1707   1.409       .  A
C1691      C1699   1.382       .  A
C1692      C1700   1.381       .  A
C1692      C1709   1.406       .  A
C1693      N2041   1.350       .  A
C1693      C1708   1.407       .  A
C1693      C1701   1.382       .  A
C1694      C1706   1.407       .  A
C1694      C1702   1.379       .  A
C1695      C1709   1.406       .  A
C1695      C1703   1.379       .  A
C1696      C1704   1.379       .  A
C1696      C1707   1.411       .  A
C1697      C1705   1.378       .  A
C1697      C1708   1.410       .  A
C1698      H1710   1.082       .  S
C1698      C2052   1.381   1_554  A
C1699      H1711   1.082       .  S
C1699      C2051   1.381       .  A
C1700      H1712   1.082       .  S
C1700      C2054   1.380   1_554  A
C1701      H1713   1.082       .  S
C1701      C2053   1.380       .  A
C1702      H1714   1.081       .  S
C1703      H1715   1.081       .  S
C1704      H1716   1.081       .  S
C1705      H1717   1.081       .  S
C1706      C1722   1.494       .  S
C1720      C1721   1.544       .  S
C1720      C1726   1.538       .  S
C1720      C1724   1.545       .  S
C1721      H1728   1.086       .  S
C1721      C1722   1.365       .  D
C1722      C1723   1.546       .  S
C1723      C1727   1.544       .  S
C1723      C1725   1.541       .  S
C1723      H1729   1.111       .  S
C1724      H1730   1.086       .  S
C1724      C1725   1.364       .  D
C1725      C1753   1.492       .  S
C1726      H1731   1.086       .  S
C1726      C1727   1.359       .  D
N1732      C1737   1.350       .  A
N1732      C2089   1.351   1_554  A
N1732      H1764   1.035       .  S
N1733      C2446   1.348       .  A
N1733      C1741   1.348       .  A
N1734      C1739   1.351       .  A
N1734      C2091   1.351   1_554  A
N1734      H1765   1.034       .  S
N1735      C2448   1.351       .  A
N1735      C1743   1.351       .  A
C1736      N2085   1.351       .  A
C1736      C1744   1.381       .  A
C1736      C1752   1.406       .  A
C1737      C1753   1.407       .  A
C1737      C1745   1.382       .  A
C1738      N2087   1.351       .  A
C1738      C1746   1.381       .  A
C1738      C1755   1.409       .  A
C1739      C1754   1.410       .  A
C1739      C1747   1.382       .  A
C1740      N2439   1.348   1_545  A
C1740      C1752   1.406       .  A
C1740      C1748   1.379       .  A
C1741      C1755   1.406       .  A
C1741      C1749   1.379       .  A
C1742      N2441   1.351   1_545  A
C1742      C1750   1.379       .  A
C1742      C1753   1.411       .  A
C1743      C1751   1.379       .  A
C1743      C1754   1.411       .  A
C1744      H1756   1.082       .  S
C1744      C2098   1.380       .  A
C1745      H1757   1.082       .  S
C1745      C2097   1.380   1_554  A
C1746      H1758   1.082       .  S
C1746      C2100   1.381       .  A
C1747      H1759   1.082       .  S
C1747      C2099   1.381   1_554  A
C1748      H1760   1.081       .  S
C1748      C2455   1.377   1_545  A
C1749      H1761   1.081       .  S
C1749      C2454   1.377       .  A
C1750      H1762   1.081       .  S
C1750      C2457   1.376   1_545  A
C1751      H1763   1.081       .  S
C1751      C2456   1.376       .  A
C1766      N1784   1.351       .  A
C1766      C1803   1.461       .  S
C1766      C1959   1.497       .  S
N1767      N1784   1.324       .  A
N1767      N1789   1.318       .  A
N1767     Co1804   2.083       .  S
C1768      N1793   1.339       .  A
C1768      C1806   1.461       .  S
C1768      H1813   1.082       .  S
H1769      C1810   1.081       .  S
C1770      N1794   1.339       .  A
C1770      C1774   1.461       .  S
C1770      H1799   1.082       .  S
Co1771     N1789   2.079       .  S
Co1771     N1779   2.083       .  S
Co1771     N1811   2.080       .  S
Co1771     N1787   2.083       .  S
Co1771    Cl1815   2.447       .  S
N1772      C1810   1.339       .  A
N1772      N1779   1.318       .  A
N1772     Co1773   2.081       .  S
Co1773     N1776   2.082       .  S
Co1773     N1793   2.079       .  S
Co1773     N1780   2.084       .  S
Co1773    Cl1815   2.448       .  S
C1774      N1812   1.351       .  A
C1774      C1901   1.497       .  S
N1775      N1782   1.318       .  A
N1775      N1805   1.324       .  A
N1775     Co1808   2.084       .  S
N1776      N1794   1.318       .  A
N1776      N1812   1.324       .  A
N1777      C1806   1.351       .  A
N1777      N1787   1.324       .  A
H1778      C1803   1.082       .  S
N1779      N1800   1.324       .  A
N1780      N1798   1.318       .  A
N1780      N1785   1.324       .  A
C1781      N1785   1.351       .  A
C1781      C1809   1.461       .  S
C1781      C1819   1.498       .  S
N1782      C1797   1.339       .  A
N1782     Co1804   2.081       .  S
C1783      N1811   1.339       .  A
C1783      C1786   1.461       .  S
C1783      H1817   1.081       .  S
C1786      N1807   1.351       .  A
C1786      C1855   1.498       .  S
N1787      N1793   1.318       .  A
N1788      C1814   1.339       .  A
N1788      N1790   1.318       .  A
N1788     Co1804   2.079       .  S
N1789      C1803   1.339       .  A
N1790      N1818   1.324       .  A
N1790     Co1808   2.082       .  S
H1791      C1814   1.082       .  S
H1792      C1809   1.081       .  S
N1794     Co1808   2.079       .  S
N1795      N1807   1.324       .  A
N1795      N1811   1.318       .  A
N1795     Co1804   2.084       .  S
C1796      N1800   1.351       .  A
C1796      C1810   1.461       .  S
C1796      C1913   1.498       .  S
C1797      C1816   1.461       .  S
C1797      H1801   1.081       .  S
N1798      C1809   1.339       .  A
N1798     Co1808   2.081       .  S
C1802      N1818   1.351       .  A
C1802      C1814   1.461       .  S
C1802      C1831   1.497       .  S
Co1804    Cl1815   2.448       .  S
N1805      C1816   1.351       .  A
C1806      C1843   1.497       .  S
Co1808    Cl1815   2.448       .  S
C1816      C2073   1.498       .  S
C1819      C1820   1.545       .  S
C1819      C1825   1.538       .  S
C1819      C1823   1.544       .  S
C1820      H1827   1.086       .  S
C1820      C1821   1.364       .  D
C1821      C1822   1.541       .  S
C1821      C1947   1.491       .  S
C1822      C1826   1.544       .  S
C1822      C1824   1.546       .  S
C1822      H1828   1.111       .  S
C1823      H1829   1.086       .  S
C1823      C1824   1.365       .  D
C1824      C2108   1.493       .  S
C1825      H1830   1.086       .  S
C1825      C1826   1.359       .  D
C1826      C1888   1.488       .  S
C1831      C1832   1.537       .  S
C1831      C1837   1.545       .  S
C1831      C1835   1.543       .  S
C1832      H1839   1.086       .  S
C1832      C1833   1.359       .  D
C1833      C1834   1.544       .  S
C1833      C1889   1.486       .  S
C1834      C1838   1.542       .  S
C1834      C1836   1.545       .  S
C1834      H1840   1.111       .  S
C1835      H1841   1.086       .  S
C1835      C1836   1.362       .  D
C1836      C2105   1.492       .  S
C1837      H1842   1.086       .  S
C1837      C1838   1.366       .  D
C1838      C2060   1.493       .  S
C1843      C1844   1.543       .  S
C1843      C1849   1.538       .  S
C1843      C1847   1.545       .  S
C1844      H1851   1.086       .  S
C1844      C1845   1.362       .  D
C1845      C1846   1.545       .  S
C1845      C2025   1.492       .  S
C1846      C1850   1.544       .  S
C1846      C1848   1.542       .  S
C1846      H1852   1.111       .  S
C1847      H1853   1.086       .  S
C1847      C1848   1.366       .  D
C1848      C1946   1.493       .  S
C1849      H1854   1.086       .  S
C1849      C1850   1.359       .  D
C1850      C1887   1.487       .  S
C1855      C1856   1.545       .  S
C1855      C1861   1.538       .  S
C1855      C1859   1.544       .  S
C1856      H1863   1.086       .  S
C1856      C1857   1.364       .  D
C1857      C1858   1.541       .  S
C1857      C2061   1.491       .  S
C1858      C1862   1.545       .  S
C1858      C1860   1.545       .  S
C1858      H1864   1.111       .  S
C1859      H1865   1.086       .  S
C1859      C1860   1.365       .  D
C1860      C2028   1.493       .  S
C1861      H1866   1.086       .  S
C1861      C1862   1.359       .  D
C1862      C1890   1.488       .  S
N1867      C1872   1.350       .  A
N1867      H1899   1.040       .  S
N1868      C2581   1.347   1_545  A
N1868      C1876   1.347       .  A
N1869      C1874   1.349       .  A
N1869      H1900   1.040       .  S
N1870      C2583   1.347       .  A
N1870      C1878   1.347   1_565  A
C1871      C1879   1.381       .  A
C1871      C1887   1.402       .  A
C1872      C1888   1.402       .  A
C1872      C1880   1.381       .  A
C1873      C1881   1.381       .  A
C1873      C1890   1.402       .  A
C1874      C1889   1.402       .  A
C1874      C1882   1.381       .  A
C1875      N2574   1.347       .  A
C1875      C1887   1.400       .  A
C1875      C1883   1.378       .  A
C1876      C1890   1.399       .  A
C1876      C1884   1.378       .  A
C1877      N2576   1.347       .  A
C1877      C1885   1.378       .  A
C1877      C1888   1.399       .  A
C1878      C1886   1.378       .  A
C1878      C1889   1.399       .  A
C1879      H1891   1.082       .  S
C1880      H1892   1.082       .  S
C1881      H1893   1.082       .  S
C1882      H1894   1.082       .  S
C1883      H1895   1.081       .  S
C1883      C2590   1.373       .  A
C1884      H1896   1.081       .  S
C1884      C2589   1.373   1_545  A
C1885      H1897   1.081       .  S
C1885      C2592   1.373       .  A
C1886      H1898   1.081       .  S
C1886      C2591   1.373   1_545  A
C1901      C1902   1.545       .  S
C1901      C1907   1.537       .  S
C1901      C1905   1.543       .  S
C1902      H1909   1.086       .  S
C1902      C1903   1.366       .  D
C1903      C1904   1.542       .  S
C1903      C2107   1.493       .  S
C1904      C1908   1.544       .  S
C1904      C1906   1.545       .  S
C1904      H1910   1.111       .  S
C1905      H1911   1.086       .  S
C1905      C1906   1.362       .  D
C1906      C1948   1.492       .  S
C1907      H1912   1.086       .  S
C1907      C1908   1.359       .  D
C1908      C1991   1.486       .  S
C1913      C1914   1.544       .  S
C1913      C1919   1.538       .  S
C1913      C1917   1.545       .  S
C1914      H1921   1.086       .  S
C1914      C1915   1.365       .  D
C1915      C1916   1.546       .  S
C1915      C1945   1.494       .  S
C1916      C1920   1.544       .  S
C1916      C1918   1.541       .  S
C1916      H1922   1.111       .  S
C1917      H1923   1.086       .  S
C1917      C1918   1.364       .  D
C1918      C2026   1.491       .  S
C1919      H1924   1.086       .  S
C1919      C1920   1.359       .  D
C1920      C1994   1.488       .  S
N1925      C1929   1.351       .  A
N1925      H1957   1.034       .  S
N1926      C1934   1.348       .  A
N1927      C1931   1.350       .  A
N1927      H1958   1.035       .  S
N1928      C1936   1.351       .  A
C1929      C1937   1.381       .  A
C1929      C1945   1.409       .  A
C1930      C1946   1.410       .  A
C1930      C1938   1.382       .  A
C1931      C1939   1.381       .  A
C1931      C1948   1.406       .  A
C1932      C1947   1.407       .  A
C1932      C1940   1.382       .  A
C1933      C1945   1.406       .  A
C1933      C1941   1.379       .  A
C1934      C1948   1.406       .  A
C1934      C1942   1.379       .  A
C1935      C1943   1.379       .  A
C1935      C1946   1.411       .  A
C1936      C1944   1.378       .  A
C1936      C1947   1.410       .  A
C1937      H1949   1.082       .  S
C1938      H1950   1.082       .  S
C1939      H1951   1.082       .  S
C1940      H1952   1.082       .  S
C1941      H1953   1.081       .  S
C1942      H1954   1.081       .  S
C1943      H1955   1.081       .  S
C1944      H1956   1.081       .  S
C1959      C1960   1.545       .  S
C1959      C1965   1.537       .  S
C1959      C1963   1.544       .  S
C1960      H1967   1.086       .  S
C1960      C1961   1.366       .  D
C1961      C1962   1.542       .  S
C1961      C2027   1.493       .  S
C1962      C1966   1.544       .  S
C1962      C1964   1.545       .  S
C1962      H1968   1.111       .  S
C1963      H1969   1.086       .  S
C1963      C1964   1.362       .  D
C1964      C2062   1.493       .  S
C1965      H1970   1.086       .  S
C1965      C1966   1.359       .  D
C1966      C1993   1.486       .  S
N1971      C2682   1.350       .  A
N1971      C1975   1.349       .  A
N1971      H2003   1.040       .  S
N1972      C1979   1.347       .  A
N1973      C1978   1.349       .  A
N1973      C2683   1.350   1_545  A
N1973      H2004   1.040       .  S
N1974      C1981   1.347       .  A
C1975      C1983   1.381       .  A
C1975      C1991   1.402       .  A
C1976      N2677   1.350   1_545  A
C1976      C1992   1.402       .  A
C1976      C1984   1.381       .  A
C1977      N2679   1.350       .  A
C1977      C1985   1.381       .  A
C1977      C1994   1.402       .  A
C1978      C1993   1.402       .  A
C1978      C1986   1.381       .  A
C1979      C1991   1.399       .  A
C1979      C1987   1.378       .  A
C1980      C1994   1.399       .  A
C1980      C1988   1.378       .  A
C1981      C1989   1.378       .  A
C1981      C1992   1.399       .  A
C1982      C1990   1.378       .  A
C1982      C1993   1.399       .  A
C1983      H1995   1.082       .  S
C1983      C2690   1.380       .  A
C1984      H1996   1.082       .  S
C1984      C2689   1.379   1_545  A
C1985      H1997   1.082       .  S
C1985      C2692   1.380       .  A
C1986      H1998   1.082       .  S
C1986      C2691   1.380   1_545  A
C1987      H1999   1.081       .  S
C1988      H2000   1.081       .  S
C1989      H2001   1.081       .  S
C1990      H2002   1.081       .  S
C1992      C2080   1.488       .  S
N2005      C2010   1.350       .  A
N2005      H2037   1.035       .  S
N2006      C2719   1.348   1_545  A
N2006      C2014   1.348       .  A
N2007      C2012   1.351       .  A
N2007      H2038   1.034       .  S
N2008      C2721   1.351   1_545  A
N2008      C2016   1.351       .  A
C2009      C2017   1.381       .  A
C2009      C2025   1.406       .  A
C2010      C2026   1.407       .  A
C2010      C2018   1.382       .  A
C2011      C2019   1.381       .  A
C2011      C2028   1.409       .  A
C2012      C2027   1.410       .  A
C2012      C2020   1.382       .  A
C2013      N2712   1.348       .  A
C2013      C2025   1.406       .  A
C2013      C2021   1.379       .  A
C2014      C2028   1.406       .  A
C2014      C2022   1.379       .  A
C2015      N2714   1.351       .  A
C2015      C2023   1.379       .  A
C2015      C2026   1.411       .  A
C2016      C2024   1.379       .  A
C2016      C2027   1.411       .  A
C2017      H2029   1.082       .  S
C2018      H2030   1.082       .  S
C2019      H2031   1.082       .  S
C2020      H2032   1.082       .  S
C2021      H2033   1.081       .  S
C2021      C2728   1.377       .  A
C2022      H2034   1.081       .  S
C2022      C2727   1.377   1_545  A
C2023      H2035   1.081       .  S
C2023      C2730   1.376       .  A
C2024      H2036   1.081       .  S
C2024      C2729   1.376   1_545  A
N2039      C2043   1.351       .  A
N2039      H2071   1.034       .  S
N2040      C2047   1.348       .  A
N2041      C2045   1.351       .  A
N2041      H2072   1.035       .  S
N2042      C2049   1.351       .  A
C2043      C2051   1.381       .  A
C2043      C2059   1.409       .  A
C2044      C2060   1.409       .  A
C2044      C2052   1.382       .  A
C2045      C2053   1.381       .  A
C2045      C2062   1.406       .  A
C2046      C2061   1.407       .  A
C2046      C2054   1.382       .  A
C2047      C2059   1.407       .  A
C2047      C2055   1.379       .  A
C2048      C2062   1.406       .  A
C2048      C2056   1.379       .  A
C2049      C2057   1.379       .  A
C2049      C2060   1.411       .  A
C2050      C2058   1.378       .  A
C2050      C2061   1.410       .  A
C2051      H2063   1.082       .  S
C2052      H2064   1.082       .  S
C2053      H2065   1.082       .  S
C2054      H2066   1.082       .  S
C2055      H2067   1.081       .  S
C2056      H2068   1.081       .  S
C2057      H2069   1.081       .  S
C2058      H2070   1.081       .  S
C2059      C2075   1.494       .  S
C2073      C2074   1.544       .  S
C2073      C2079   1.538       .  S
C2073      C2077   1.545       .  S
C2074      H2081   1.086       .  S
C2074      C2075   1.365       .  D
C2075      C2076   1.546       .  S
C2076      C2080   1.544       .  S
C2076      C2078   1.541       .  S
C2076      H2082   1.111       .  S
C2077      H2083   1.086       .  S
C2077      C2078   1.364       .  D
C2078      C2106   1.492       .  S
C2079      H2084   1.086       .  S
C2079      C2080   1.359       .  D
N2085      C2090   1.350       .  A
N2085      H2117   1.035       .  S
N2086      C2799   1.348       .  A
N2086      C2094   1.348       .  A
N2087      C2092   1.351       .  A
N2087      H2118   1.034       .  S
N2088      C2801   1.351       .  A
N2088      C2096   1.351       .  A
C2089      C2097   1.381       .  A
C2089      C2105   1.406       .  A
C2090      C2106   1.407       .  A
C2090      C2098   1.382       .  A
C2091      C2099   1.381       .  A
C2091      C2108   1.409       .  A
C2092      C2107   1.410       .  A
C2092      C2100   1.382       .  A
C2093      N2792   1.348   1_545  A
C2093      C2105   1.406       .  A
C2093      C2101   1.379       .  A
C2094      C2108   1.406       .  A
C2094      C2102   1.379       .  A
C2095      N2794   1.351   1_545  A
C2095      C2103   1.379       .  A
C2095      C2106   1.411       .  A
C2096      C2104   1.379       .  A
C2096      C2107   1.411       .  A
C2097      H2109   1.082       .  S
C2098      H2110   1.082       .  S
C2099      H2111   1.082       .  S
C2100      H2112   1.082       .  S
C2101      H2113   1.081       .  S
C2101      C2808   1.377   1_545  A
C2102      H2114   1.081       .  S
C2102      C2807   1.377       .  A
C2103      H2115   1.081       .  S
C2103      C2810   1.376   1_545  A
C2104      H2116   1.081       .  S
C2104      C2809   1.376       .  A
C2119      N2137   1.351       .  A
C2119      C2156   1.461       .  S
C2119      C2312   1.497       .  S
N2120      N2137   1.324       .  A
N2120      N2142   1.318       .  A
N2120     Co2157   2.083       .  S
C2121      N2146   1.339       .  A
C2121      C2159   1.461       .  S
C2121      H2166   1.082       .  S
H2122      C2163   1.081       .  S
C2123      N2147   1.339       .  A
C2123      C2127   1.461       .  S
C2123      H2152   1.082       .  S
Co2124     N2142   2.079       .  S
Co2124     N2132   2.083       .  S
Co2124     N2164   2.080       .  S
Co2124     N2140   2.083       .  S
Co2124    Cl2168   2.447       .  S
N2125      C2163   1.339       .  A
N2125      N2132   1.318       .  A
N2125     Co2126   2.081       .  S
Co2126     N2129   2.082       .  S
Co2126     N2146   2.079       .  S
Co2126     N2133   2.084       .  S
Co2126    Cl2168   2.448       .  S
C2127      N2165   1.351       .  A
C2127      C2254   1.497       .  S
N2128      N2135   1.318       .  A
N2128      N2158   1.324       .  A
N2128     Co2161   2.084       .  S
N2129      N2147   1.318       .  A
N2129      N2165   1.324       .  A
N2130      C2159   1.351       .  A
N2130      N2140   1.324       .  A
H2131      C2156   1.082       .  S
N2132      N2153   1.324       .  A
N2133      N2151   1.318       .  A
N2133      N2138   1.324       .  A
C2134      N2138   1.351       .  A
C2134      C2162   1.461       .  S
C2134      C2172   1.498       .  S
N2135      C2150   1.339       .  A
N2135     Co2157   2.081       .  S
C2136      N2164   1.339       .  A
C2136      C2139   1.461       .  S
C2136      H2170   1.081       .  S
C2139      N2160   1.351       .  A
C2139      C2208   1.498       .  S
N2140      N2146   1.318       .  A
N2141      C2167   1.339       .  A
N2141      N2143   1.318       .  A
N2141     Co2157   2.079       .  S
N2142      C2156   1.339       .  A
N2143      N2171   1.324       .  A
N2143     Co2161   2.082       .  S
H2144      C2167   1.082       .  S
H2145      C2162   1.081       .  S
N2147     Co2161   2.079       .  S
N2148      N2160   1.324       .  A
N2148      N2164   1.318       .  A
N2148     Co2157   2.084       .  S
C2149      N2153   1.351       .  A
C2149      C2163   1.461       .  S
C2149      C2266   1.498       .  S
C2150      C2169   1.461       .  S
C2150      H2154   1.081       .  S
N2151      C2162   1.339       .  A
N2151     Co2161   2.081       .  S
C2155      N2171   1.351       .  A
C2155      C2167   1.461       .  S
C2155      C2184   1.497       .  S
Co2157    Cl2168   2.448       .  S
N2158      C2169   1.351       .  A
C2159      C2196   1.497       .  S
Co2161    Cl2168   2.448       .  S
C2169      C2426   1.498       .  S
C2172      C2173   1.545       .  S
C2172      C2178   1.538       .  S
C2172      C2176   1.544       .  S
C2173      H2180   1.086       .  S
C2173      C2174   1.364       .  D
C2174      C2175   1.541       .  S
C2174      C2300   1.491       .  S
C2175      C2179   1.544       .  S
C2175      C2177   1.546       .  S
C2175      H2181   1.111       .  S
C2176      H2182   1.086       .  S
C2176      C2177   1.365       .  D
C2177      C2461   1.493       .  S
C2178      H2183   1.086       .  S
C2178      C2179   1.359       .  D
C2179      C2241   1.488       .  S
C2184      C2185   1.537       .  S
C2184      C2190   1.545       .  S
C2184      C2188   1.543       .  S
C2185      H2192   1.086       .  S
C2185      C2186   1.359       .  D
C2186      C2187   1.544       .  S
C2186      C2242   1.486       .  S
C2187      C2191   1.542       .  S
C2187      C2189   1.545       .  S
C2187      H2193   1.111       .  S
C2188      H2194   1.086       .  S
C2188      C2189   1.362       .  D
C2189      C2458   1.492       .  S
C2190      H2195   1.086       .  S
C2190      C2191   1.366       .  D
C2191      C2413   1.493       .  S
C2196      C2197   1.543       .  S
C2196      C2202   1.538       .  S
C2196      C2200   1.545       .  S
C2197      H2204   1.086       .  S
C2197      C2198   1.362       .  D
C2198      C2199   1.545       .  S
C2198      C2378   1.492       .  S
C2199      C2203   1.544       .  S
C2199      C2201   1.542       .  S
C2199      H2205   1.111       .  S
C2200      H2206   1.086       .  S
C2200      C2201   1.366       .  D
C2201      C2299   1.493       .  S
C2202      H2207   1.086       .  S
C2202      C2203   1.359       .  D
C2203      C2240   1.487       .  S
C2208      C2209   1.545       .  S
C2208      C2214   1.538       .  S
C2208      C2212   1.544       .  S
C2209      H2216   1.086       .  S
C2209      C2210   1.364       .  D
C2210      C2211   1.541       .  S
C2210      C2414   1.491       .  S
C2211      C2215   1.545       .  S
C2211      C2213   1.545       .  S
C2211      H2217   1.111       .  S
C2212      H2218   1.086       .  S
C2212      C2213   1.365       .  D
C2213      C2381   1.493       .  S
C2214      H2219   1.086       .  S
C2214      C2215   1.359       .  D
C2215      C2243   1.488       .  S
N2220      C2225   1.350       .  A
N2220      H2252   1.040       .  S
N2221      C2229   1.347       .  A
N2222      C2227   1.349       .  A
N2222      H2253   1.040       .  S
N2223      C2231   1.347       .  A
C2224      C2232   1.381       .  A
C2224      C2240   1.402       .  A
C2225      C2241   1.402       .  A
C2225      C2233   1.381       .  A
C2226      C2234   1.381       .  A
C2226      C2243   1.402       .  A
C2227      C2242   1.402       .  A
C2227      C2235   1.381       .  A
C2228      C2240   1.400       .  A
C2228      C2236   1.378       .  A
C2229      C2243   1.399       .  A
C2229      C2237   1.378       .  A
C2230      C2238   1.378       .  A
C2230      C2241   1.399       .  A
C2231      C2239   1.378       .  A
C2231      C2242   1.399       .  A
C2232      H2244   1.082       .  S
C2233      H2245   1.082       .  S
C2234      H2246   1.082       .  S
C2235      H2247   1.082       .  S
C2236      H2248   1.081       .  S
C2237      H2249   1.081       .  S
C2238      H2250   1.081       .  S
C2239      H2251   1.081       .  S
C2254      C2255   1.545       .  S
C2254      C2260   1.537       .  S
C2254      C2258   1.543       .  S
C2255      H2262   1.086       .  S
C2255      C2256   1.366       .  D
C2256      C2257   1.542       .  S
C2256      C2460   1.493       .  S
C2257      C2261   1.544       .  S
C2257      C2259   1.545       .  S
C2257      H2263   1.111       .  S
C2258      H2264   1.086       .  S
C2258      C2259   1.362       .  D
C2259      C2301   1.492       .  S
C2260      H2265   1.086       .  S
C2260      C2261   1.359       .  D
C2261      C2344   1.486       .  S
C2266      C2267   1.544       .  S
C2266      C2272   1.538       .  S
C2266      C2270   1.545       .  S
C2267      H2274   1.086       .  S
C2267      C2268   1.365       .  D
C2268      C2269   1.546       .  S
C2268      C2298   1.494       .  S
C2269      C2273   1.544       .  S
C2269      C2271   1.541       .  S
C2269      H2275   1.111       .  S
C2270      H2276   1.086       .  S
C2270      C2271   1.364       .  D
C2271      C2379   1.491       .  S
C2272      H2277   1.086       .  S
C2272      C2273   1.359       .  D
C2273      C2347   1.488       .  S
N2278      C2636   1.351   1_554  A
N2278      C2282   1.351       .  A
N2278      H2310   1.034       .  S
N2279      C2287   1.348       .  A
N2280      C2638   1.350   1_554  A
N2280      C2284   1.350       .  A
N2280      H2311   1.035       .  S
N2281      C2289   1.351       .  A
C2282      C2290   1.381       .  A
C2282      C2298   1.409       .  A
C2283      N2631   1.351       .  A
C2283      C2299   1.410       .  A
C2283      C2291   1.382       .  A
C2284      C2292   1.381       .  A
C2284      C2301   1.406       .  A
C2285      N2633   1.350       .  A
C2285      C2300   1.407       .  A
C2285      C2293   1.382       .  A
C2286      C2298   1.406       .  A
C2286      C2294   1.379       .  A
C2287      C2301   1.406       .  A
C2287      C2295   1.379       .  A
C2288      C2296   1.379       .  A
C2288      C2299   1.411       .  A
C2289      C2297   1.378       .  A
C2289      C2300   1.410       .  A
C2290      H2302   1.082       .  S
C2290      C2644   1.381   1_554  A
C2291      H2303   1.082       .  S
C2291      C2643   1.381       .  A
C2292      H2304   1.082       .  S
C2292      C2646   1.380   1_554  A
C2293      H2305   1.082       .  S
C2293      C2645   1.380       .  A
C2294      H2306   1.081       .  S
C2295      H2307   1.081       .  S
C2296      H2308   1.081       .  S
C2297      H2309   1.081       .  S
C2312      C2313   1.545       .  S
C2312      C2318   1.537       .  S
C2312      C2316   1.544       .  S
C2313      H2320   1.086       .  S
C2313      C2314   1.366       .  D
C2314      C2315   1.542       .  S
C2314      C2380   1.493       .  S
C2315      C2319   1.544       .  S
C2315      C2317   1.545       .  S
C2315      H2321   1.111       .  S
C2316      H2322   1.086       .  S
C2316      C2317   1.362       .  D
C2317      C2415   1.493       .  S
C2318      H2323   1.086       .  S
C2318      C2319   1.359       .  D
C2319      C2346   1.486       .  S
N2324      C2328   1.349       .  A
N2324      H2356   1.040       .  S
N2325      C2332   1.347       .  A
N2326      C2331   1.349       .  A
N2326      H2357   1.040       .  S
N2327      C2334   1.347       .  A
C2328      C2336   1.381       .  A
C2328      C2344   1.402       .  A
C2329      C2345   1.402       .  A
C2329      C2337   1.381       .  A
C2330      C2338   1.381       .  A
C2330      C2347   1.402       .  A
C2331      C2346   1.402       .  A
C2331      C2339   1.381       .  A
C2332      C2344   1.399       .  A
C2332      C2340   1.378       .  A
C2333      C2347   1.399       .  A
C2333      C2341   1.378       .  A
C2334      C2342   1.378       .  A
C2334      C2345   1.399       .  A
C2335      C2343   1.378       .  A
C2335      C2346   1.399       .  A
C2336      H2348   1.082       .  S
C2337      H2349   1.082       .  S
C2338      H2350   1.082       .  S
C2339      H2351   1.082       .  S
C2340      H2352   1.081       .  S
C2341      H2353   1.081       .  S
C2342      H2354   1.081       .  S
C2343      H2355   1.081       .  S
C2345      C2433   1.488       .  S
N2358      C2363   1.350       .  A
N2358      C2715   1.351   1_554  A
N2358      H2390   1.035       .  S
N2359      C2367   1.348       .  A
N2360      C2365   1.351       .  A
N2360      C2717   1.351   1_554  A
N2360      H2391   1.034       .  S
N2361      C2369   1.351       .  A
C2362      N2711   1.351       .  A
C2362      C2370   1.381       .  A
C2362      C2378   1.406       .  A
C2363      C2379   1.407       .  A
C2363      C2371   1.382       .  A
C2364      N2713   1.351       .  A
C2364      C2372   1.381       .  A
C2364      C2381   1.409       .  A
C2365      C2380   1.410       .  A
C2365      C2373   1.382       .  A
C2366      C2378   1.406       .  A
C2366      C2374   1.379       .  A
C2367      C2381   1.406       .  A
C2367      C2375   1.379       .  A
C2368      C2376   1.379       .  A
C2368      C2379   1.411       .  A
C2369      C2377   1.379       .  A
C2369      C2380   1.411       .  A
C2370      H2382   1.082       .  S
C2370      C2724   1.380       .  A
C2371      H2383   1.082       .  S
C2371      C2723   1.380   1_554  A
C2372      H2384   1.082       .  S
C2372      C2726   1.381       .  A
C2373      H2385   1.082       .  S
C2373      C2725   1.381   1_554  A
C2374      H2386   1.081       .  S
C2375      H2387   1.081       .  S
C2376      H2388   1.081       .  S
C2377      H2389   1.081       .  S
N2392      C2750   1.351   1_554  A
N2392      C2396   1.351       .  A
N2392      H2424   1.034       .  S
N2393      C2400   1.348       .  A
N2394      C2752   1.350   1_554  A
N2394      C2398   1.351       .  A
N2394      H2425   1.035       .  S
N2395      C2402   1.351       .  A
C2396      C2404   1.381       .  A
C2396      C2412   1.409       .  A
C2397      N2745   1.351       .  A
C2397      C2413   1.409       .  A
C2397      C2405   1.382       .  A
C2398      C2406   1.381       .  A
C2398      C2415   1.406       .  A
C2399      N2747   1.350       .  A
C2399      C2414   1.407       .  A
C2399      C2407   1.382       .  A
C2400      C2412   1.407       .  A
C2400      C2408   1.379       .  A
C2401      C2415   1.406       .  A
C2401      C2409   1.379       .  A
C2402      C2410   1.379       .  A
C2402      C2413   1.411       .  A
C2403      C2411   1.378       .  A
C2403      C2414   1.410       .  A
C2404      H2416   1.082       .  S
C2404      C2758   1.381   1_554  A
C2405      H2417   1.082       .  S
C2405      C2757   1.381       .  A
C2406      H2418   1.082       .  S
C2406      C2760   1.380   1_554  A
C2407      H2419   1.082       .  S
C2407      C2759   1.380       .  A
C2408      H2420   1.081       .  S
C2409      H2421   1.081       .  S
C2410      H2422   1.081       .  S
C2411      H2423   1.081       .  S
C2412      C2428   1.494       .  S
C2426      C2427   1.544       .  S
C2426      C2432   1.538       .  S
C2426      C2430   1.545       .  S
C2427      H2434   1.086       .  S
C2427      C2428   1.365       .  D
C2428      C2429   1.546       .  S
C2429      C2433   1.544       .  S
C2429      C2431   1.541       .  S
C2429      H2435   1.111       .  S
C2430      H2436   1.086       .  S
C2430      C2431   1.364       .  D
C2431      C2459   1.492       .  S
C2432      H2437   1.086       .  S
C2432      C2433   1.359       .  D
N2438      C2443   1.350       .  A
N2438      C2795   1.351   1_554  A
N2438      H2470   1.035       .  S
N2439      C2447   1.348       .  A
N2440      C2445   1.351       .  A
N2440      C2797   1.351   1_554  A
N2440      H2471   1.034       .  S
N2441      C2449   1.351       .  A
C2442      N2791   1.351       .  A
C2442      C2450   1.381       .  A
C2442      C2458   1.406       .  A
C2443      C2459   1.407       .  A
C2443      C2451   1.382       .  A
C2444      N2793   1.351       .  A
C2444      C2452   1.381       .  A
C2444      C2461   1.409       .  A
C2445      C2460   1.410       .  A
C2445      C2453   1.382       .  A
C2446      C2458   1.406       .  A
C2446      C2454   1.379       .  A
C2447      C2461   1.406       .  A
C2447      C2455   1.379       .  A
C2448      C2456   1.379       .  A
C2448      C2459   1.411       .  A
C2449      C2457   1.379       .  A
C2449      C2460   1.411       .  A
C2450      H2462   1.082       .  S
C2450      C2804   1.380       .  A
C2451      H2463   1.082       .  S
C2451      C2803   1.380   1_554  A
C2452      H2464   1.082       .  S
C2452      C2806   1.381       .  A
C2453      H2465   1.082       .  S
C2453      C2805   1.381   1_554  A
C2454      H2466   1.081       .  S
C2455      H2467   1.081       .  S
C2456      H2468   1.081       .  S
C2457      H2469   1.081       .  S
C2472      N2490   1.351       .  A
C2472      C2509   1.461       .  S
C2472      C2665   1.497       .  S
N2473      N2490   1.324       .  A
N2473      N2495   1.318       .  A
N2473     Co2510   2.083       .  S
C2474      N2499   1.339       .  A
C2474      C2512   1.461       .  S
C2474      H2519   1.082       .  S
H2475      C2516   1.081       .  S
C2476      N2500   1.339       .  A
C2476      C2480   1.461       .  S
C2476      H2505   1.082       .  S
Co2477     N2495   2.079       .  S
Co2477     N2485   2.083       .  S
Co2477     N2517   2.080       .  S
Co2477     N2493   2.083       .  S
Co2477    Cl2521   2.447       .  S
N2478      C2516   1.339       .  A
N2478      N2485   1.318       .  A
N2478     Co2479   2.081       .  S
Co2479     N2482   2.082       .  S
Co2479     N2499   2.079       .  S
Co2479     N2486   2.084       .  S
Co2479    Cl2521   2.448       .  S
C2480      N2518   1.351       .  A
C2480      C2607   1.497       .  S
N2481      N2488   1.318       .  A
N2481      N2511   1.324       .  A
N2481     Co2514   2.084       .  S
N2482      N2500   1.318       .  A
N2482      N2518   1.324       .  A
N2483      C2512   1.351       .  A
N2483      N2493   1.324       .  A
H2484      C2509   1.082       .  S
N2485      N2506   1.324       .  A
N2486      N2504   1.318       .  A
N2486      N2491   1.324       .  A
C2487      N2491   1.351       .  A
C2487      C2515   1.461       .  S
C2487      C2525   1.498       .  S
N2488      C2503   1.339       .  A
N2488     Co2510   2.081       .  S
C2489      N2517   1.339       .  A
C2489      C2492   1.461       .  S
C2489      H2523   1.081       .  S
C2492      N2513   1.351       .  A
C2492      C2561   1.498       .  S
N2493      N2499   1.318       .  A
N2494      C2520   1.339       .  A
N2494      N2496   1.318       .  A
N2494     Co2510   2.079       .  S
N2495      C2509   1.339       .  A
N2496      N2524   1.324       .  A
N2496     Co2514   2.082       .  S
H2497      C2520   1.082       .  S
H2498      C2515   1.081       .  S
N2500     Co2514   2.079       .  S
N2501      N2513   1.324       .  A
N2501      N2517   1.318       .  A
N2501     Co2510   2.084       .  S
C2502      N2506   1.351       .  A
C2502      C2516   1.461       .  S
C2502      C2619   1.498       .  S
C2503      C2522   1.461       .  S
C2503      H2507   1.081       .  S
N2504      C2515   1.339       .  A
N2504     Co2514   2.081       .  S
C2508      N2524   1.351       .  A
C2508      C2520   1.461       .  S
C2508      C2537   1.497       .  S
Co2510    Cl2521   2.448       .  S
N2511      C2522   1.351       .  A
C2512      C2549   1.497       .  S
Co2514    Cl2521   2.448       .  S
C2522      C2779   1.498       .  S
C2525      C2526   1.545       .  S
C2525      C2531   1.538       .  S
C2525      C2529   1.544       .  S
C2526      H2533   1.086       .  S
C2526      C2527   1.364       .  D
C2527      C2528   1.541       .  S
C2527      C2653   1.491       .  S
C2528      C2532   1.544       .  S
C2528      C2530   1.546       .  S
C2528      H2534   1.111       .  S
C2529      H2535   1.086       .  S
C2529      C2530   1.365       .  D
C2530      C2814   1.493       .  S
C2531      H2536   1.086       .  S
C2531      C2532   1.359       .  D
C2532      C2594   1.488       .  S
C2537      C2538   1.537       .  S
C2537      C2543   1.545       .  S
C2537      C2541   1.543       .  S
C2538      H2545   1.086       .  S
C2538      C2539   1.359       .  D
C2539      C2540   1.544       .  S
C2539      C2595   1.486       .  S
C2540      C2544   1.542       .  S
C2540      C2542   1.545       .  S
C2540      H2546   1.111       .  S
C2541      H2547   1.086       .  S
C2541      C2542   1.362       .  D
C2542      C2811   1.492       .  S
C2543      H2548   1.086       .  S
C2543      C2544   1.366       .  D
C2544      C2766   1.493       .  S
C2549      C2550   1.543       .  S
C2549      C2555   1.538       .  S
C2549      C2553   1.545       .  S
C2550      H2557   1.086       .  S
C2550      C2551   1.362       .  D
C2551      C2552   1.545       .  S
C2551      C2731   1.492       .  S
C2552      C2556   1.544       .  S
C2552      C2554   1.542       .  S
C2552      H2558   1.111       .  S
C2553      H2559   1.086       .  S
C2553      C2554   1.366       .  D
C2554      C2652   1.493       .  S
C2555      H2560   1.086       .  S
C2555      C2556   1.359       .  D
C2556      C2593   1.487       .  S
C2561      C2562   1.545       .  S
C2561      C2567   1.538       .  S
C2561      C2565   1.544       .  S
C2562      H2569   1.086       .  S
C2562      C2563   1.364       .  D
C2563      C2564   1.541       .  S
C2563      C2767   1.491       .  S
C2564      C2568   1.545       .  S
C2564      C2566   1.545       .  S
C2564      H2570   1.111       .  S
C2565      H2571   1.086       .  S
C2565      C2566   1.365       .  D
C2566      C2734   1.493       .  S
C2567      H2572   1.086       .  S
C2567      C2568   1.359       .  D
C2568      C2596   1.488       .  S
N2573      C2578   1.350       .  A
N2573      H2605   1.040       .  S
N2574      C2582   1.347       .  A
N2575      C2580   1.350       .  A
N2575      H2606   1.040       .  S
N2576      C2584   1.347       .  A
C2577      C2585   1.381       .  A
C2577      C2593   1.402       .  A
C2578      C2594   1.402       .  A
C2578      C2586   1.381       .  A
C2579      C2587   1.381       .  A
C2579      C2596   1.402       .  A
C2580      C2595   1.402       .  A
C2580      C2588   1.381       .  A
C2581      C2593   1.400       .  A
C2581      C2589   1.378       .  A
C2582      C2596   1.399       .  A
C2582      C2590   1.378       .  A
C2583      C2591   1.378       .  A
C2583      C2594   1.399       .  A
C2584      C2592   1.378       .  A
C2584      C2595   1.399       .  A
C2585      H2597   1.082       .  S
C2586      H2598   1.082       .  S
C2587      H2599   1.082       .  S
C2588      H2600   1.082       .  S
C2589      H2601   1.081       .  S
C2590      H2602   1.081       .  S
C2591      H2603   1.081       .  S
C2592      H2604   1.081       .  S
C2607      C2608   1.545       .  S
C2607      C2613   1.537       .  S
C2607      C2611   1.543       .  S
C2608      H2615   1.086       .  S
C2608      C2609   1.366       .  D
C2609      C2610   1.542       .  S
C2609      C2813   1.493       .  S
C2610      C2614   1.544       .  S
C2610      C2612   1.545       .  S
C2610      H2616   1.111       .  S
C2611      H2617   1.086       .  S
C2611      C2612   1.362       .  D
C2612      C2654   1.492       .  S
C2613      H2618   1.086       .  S
C2613      C2614   1.359       .  D
C2614      C2697   1.486       .  S
C2619      C2620   1.544       .  S
C2619      C2625   1.538       .  S
C2619      C2623   1.545       .  S
C2620      H2627   1.086       .  S
C2620      C2621   1.365       .  D
C2621      C2622   1.546       .  S
C2621      C2651   1.494       .  S
C2622      C2626   1.544       .  S
C2622      C2624   1.541       .  S
C2622      H2628   1.111       .  S
C2623      H2629   1.086       .  S
C2623      C2624   1.364       .  D
C2624      C2732   1.491       .  S
C2625      H2630   1.086       .  S
C2625      C2626   1.359       .  D
C2626      C2700   1.488       .  S
N2631      C2635   1.351       .  A
N2631      H2663   1.034       .  S
N2632      C2640   1.348       .  A
N2633      C2637   1.350       .  A
N2633      H2664   1.035       .  S
N2634      C2642   1.351       .  A
C2635      C2643   1.381       .  A
C2635      C2651   1.409       .  A
C2636      C2652   1.410       .  A
C2636      C2644   1.382       .  A
C2637      C2645   1.381       .  A
C2637      C2654   1.406       .  A
C2638      C2653   1.407       .  A
C2638      C2646   1.382       .  A
C2639      C2651   1.406       .  A
C2639      C2647   1.379       .  A
C2640      C2654   1.406       .  A
C2640      C2648   1.379       .  A
C2641      C2649   1.379       .  A
C2641      C2652   1.411       .  A
C2642      C2650   1.378       .  A
C2642      C2653   1.410       .  A
C2643      H2655   1.082       .  S
C2644      H2656   1.082       .  S
C2645      H2657   1.082       .  S
C2646      H2658   1.082       .  S
C2647      H2659   1.081       .  S
C2648      H2660   1.081       .  S
C2649      H2661   1.081       .  S
C2650      H2662   1.081       .  S
C2665      C2666   1.545       .  S
C2665      C2671   1.537       .  S
C2665      C2669   1.544       .  S
C2666      H2673   1.086       .  S
C2666      C2667   1.366       .  D
C2667      C2668   1.542       .  S
C2667      C2733   1.493       .  S
C2668      C2672   1.544       .  S
C2668      C2670   1.545       .  S
C2668      H2674   1.111       .  S
C2669      H2675   1.086       .  S
C2669      C2670   1.362       .  D
C2670      C2768   1.493       .  S
C2671      H2676   1.086       .  S
C2671      C2672   1.359       .  D
C2672      C2699   1.486       .  S
N2677      C2681   1.349       .  A
N2677      H2709   1.040       .  S
N2678      C2685   1.347       .  A
N2679      C2684   1.349       .  A
N2679      H2710   1.040       .  S
N2680      C2687   1.347       .  A
C2681      C2689   1.381       .  A
C2681      C2697   1.402       .  A
C2682      C2698   1.402       .  A
C2682      C2690   1.381       .  A
C2683      C2691   1.381       .  A
C2683      C2700   1.402       .  A
C2684      C2699   1.402       .  A
C2684      C2692   1.381       .  A
C2685      C2697   1.399       .  A
C2685      C2693   1.378       .  A
C2686      C2700   1.399       .  A
C2686      C2694   1.378       .  A
C2687      C2695   1.378       .  A
C2687      C2698   1.399       .  A
C2688      C2696   1.378       .  A
C2688      C2699   1.399       .  A
C2689      H2701   1.082       .  S
C2690      H2702   1.082       .  S
C2691      H2703   1.082       .  S
C2692      H2704   1.082       .  S
C2693      H2705   1.081       .  S
C2694      H2706   1.081       .  S
C2695      H2707   1.081       .  S
C2696      H2708   1.081       .  S
C2698      C2786   1.488       .  S
N2711      C2716   1.350       .  A
N2711      H2743   1.035       .  S
N2712      C2720   1.348       .  A
N2713      C2718   1.351       .  A
N2713      H2744   1.034       .  S
N2714      C2722   1.351       .  A
C2715      C2723   1.381       .  A
C2715      C2731   1.406       .  A
C2716      C2732   1.407       .  A
C2716      C2724   1.382       .  A
C2717      C2725   1.381       .  A
C2717      C2734   1.409       .  A
C2718      C2733   1.410       .  A
C2718      C2726   1.382       .  A
C2719      C2731   1.406       .  A
C2719      C2727   1.379       .  A
C2720      C2734   1.406       .  A
C2720      C2728   1.379       .  A
C2721      C2729   1.379       .  A
C2721      C2732   1.411       .  A
C2722      C2730   1.379       .  A
C2722      C2733   1.411       .  A
C2723      H2735   1.082       .  S
C2724      H2736   1.082       .  S
C2725      H2737   1.082       .  S
C2726      H2738   1.082       .  S
C2727      H2739   1.081       .  S
C2728      H2740   1.081       .  S
C2729      H2741   1.081       .  S
C2730      H2742   1.081       .  S
N2745      C2749   1.351       .  A
N2745      H2777   1.034       .  S
N2746      C2753   1.348       .  A
N2747      C2751   1.351       .  A
N2747      H2778   1.035       .  S
N2748      C2755   1.351       .  A
C2749      C2757   1.381       .  A
C2749      C2765   1.409       .  A
C2750      C2766   1.409       .  A
C2750      C2758   1.382       .  A
C2751      C2759   1.381       .  A
C2751      C2768   1.406       .  A
C2752      C2767   1.407       .  A
C2752      C2760   1.382       .  A
C2753      C2765   1.407       .  A
C2753      C2761   1.379       .  A
C2754      C2768   1.406       .  A
C2754      C2762   1.379       .  A
C2755      C2763   1.379       .  A
C2755      C2766   1.411       .  A
C2756      C2764   1.378       .  A
C2756      C2767   1.410       .  A
C2757      H2769   1.082       .  S
C2758      H2770   1.082       .  S
C2759      H2771   1.082       .  S
C2760      H2772   1.082       .  S
C2761      H2773   1.081       .  S
C2762      H2774   1.081       .  S
C2763      H2775   1.081       .  S
C2764      H2776   1.081       .  S
C2765      C2781   1.494       .  S
C2779      C2780   1.544       .  S
C2779      C2785   1.538       .  S
C2779      C2783   1.545       .  S
C2780      H2787   1.086       .  S
C2780      C2781   1.365       .  D
C2781      C2782   1.546       .  S
C2782      C2786   1.544       .  S
C2782      C2784   1.541       .  S
C2782      H2788   1.111       .  S
C2783      H2789   1.086       .  S
C2783      C2784   1.364       .  D
C2784      C2812   1.492       .  S
C2785      H2790   1.086       .  S
C2785      C2786   1.359       .  D
N2791      C2796   1.350       .  A
N2791      H2823   1.035       .  S
N2792      C2800   1.348       .  A
N2793      C2798   1.351       .  A
N2793      H2824   1.034       .  S
N2794      C2802   1.351       .  A
C2795      C2803   1.381       .  A
C2795      C2811   1.406       .  A
C2796      C2812   1.407       .  A
C2796      C2804   1.382       .  A
C2797      C2805   1.381       .  A
C2797      C2814   1.409       .  A
C2798      C2813   1.410       .  A
C2798      C2806   1.382       .  A
C2799      C2811   1.406       .  A
C2799      C2807   1.379       .  A
C2800      C2814   1.406       .  A
C2800      C2808   1.379       .  A
C2801      C2809   1.378       .  A
C2801      C2812   1.411       .  A
C2802      C2810   1.379       .  A
C2802      C2813   1.411       .  A
C2803      H2815   1.082       .  S
C2804      H2816   1.082       .  S
C2805      H2817   1.082       .  S
C2806      H2818   1.082       .  S
C2807      H2819   1.081       .  S
C2808      H2820   1.081       .  S
C2809      H2821   1.081       .  S
C2810      H2822   1.081       .  S
