geometry optimzed in LAMMPS
_audit_creation_date              2020-12-01 
_audit_creation_method            'lammps2cif' 
_symmetry_space_group_name_H-M    'P1' 
_symmetry_Int_Tables_number       1 
_symmetry_cell_setting            triclinic 
loop_ 
_symmetry_equiv_pos_as_xyz 
  x,y,z 
_cell_length_a                    29.15533848 
_cell_length_b                    29.175657437580593 
_cell_length_c                    29.149682810120918 
_cell_angle_alpha                 89.95719816460252 
_cell_angle_beta                  89.93155261966423 
_cell_angle_gamma                 89.94726559554003 
loop_ 
_atom_site_label 
_atom_site_type_symbol 
_atom_site_fract_x 
_atom_site_fract_y 
_atom_site_fract_z 
_atom_site_charge 
O1          O  0.68036927  0.72165035  0.62621447    -0.85100
O2          O  0.62575406  0.74310831  0.69910033    -0.82200
C3          C  0.60628534  0.70538846  0.70832349     0.98400
O4          O  0.62900487  0.67263166  0.72488268    -0.82200
O5          O  0.70282144  0.61891927  0.74669367    -0.84800
C6          C  0.71360979  0.59967604  0.70926323     1.02900
O7          O  0.73118586  0.62242157  0.67707879    -0.77600
O8          O  0.75098589  0.69606475  0.62311786    -0.77800
C9          C  0.71288344  0.70437913  0.60369932     1.02800
O10         O  0.75262025  0.77917370  0.66104467    -0.85100
O11         O  0.70173205  0.79251767  0.73888878    -0.82200
C12         C  0.68195451  0.78348958  0.77624803     0.98400
O13         O  0.66317455  0.74488495  0.78232574    -0.82200
O14         O  0.74057081  0.69427615  0.79778839    -0.84800
C15         C  0.77800250  0.67424625  0.78986108     1.02800
O16         O  0.78615335  0.65792050  0.75042740    -0.77600
O17         O  0.79955656  0.73604305  0.70065357    -0.77800
C18         C  0.79086801  0.77317136  0.68057373     1.02800
Cr19       Cr  0.69154773  0.75570510  0.68318579     1.93700
Cr20       Cr  0.68581928  0.68414978  0.75939813     1.93200
Cr21       Cr  0.76354256  0.68008200  0.68915103     1.39100
O22         O  0.71343308  0.70635519  0.71040575    -1.22900
O23         O  0.74684281  0.30255588  0.62350695    -0.85100
O24         O  0.72731130  0.37951837  0.67490723    -0.82200
C25         C  0.71007532  0.40333356  0.70664171     0.98400
O26         O  0.69757529  0.38490443  0.74400252    -0.82200
O27         O  0.62260285  0.33293065  0.72357640    -0.84800
C28         C  0.59936459  0.30117962  0.70592549     1.02900
O29         O  0.61769892  0.26290110  0.69697567    -0.77600
O30         O  0.67522246  0.28002937  0.62492738    -0.77800
C31         C  0.70971452  0.29352545  0.60281220     1.02800
O32         O  0.79142801  0.26382254  0.70321963    -0.85100
O33         O  0.77985889  0.34501697  0.74956932    -0.82200
C34         C  0.77099962  0.33058827  0.78945552     0.98400
O35         O  0.73364466  0.31058989  0.79788016    -0.82200
O36         O  0.65452598  0.26108961  0.78345557    -0.84800
C37         C  0.67031027  0.22124150  0.77662340     1.02800
O38         O  0.69015376  0.21171160  0.73952481    -0.77600
O39         O  0.74382319  0.22122839  0.66384596    -0.77800
C40         C  0.78194329  0.22648452  0.68377834     1.02800
Cr41       Cr  0.75766189  0.32084991  0.68913017     1.93700
Cr42       Cr  0.67901278  0.32063940  0.75866490     1.93200
Cr43       Cr  0.68323340  0.24765466  0.68332239     1.39100
O44         O  0.70631089  0.29671661  0.71018274    -1.22900
O45         O  0.25914968  0.38823270  0.70362845    -0.85100
O46         O  0.27705248  0.33306168  0.62888707    -0.82200
C47         C  0.29223558  0.29971268  0.60588236     0.98400
O48         O  0.30266301  0.26266038  0.62597777    -0.82200
O49         O  0.37949059  0.28480680  0.67579477    -0.84800
C50         C  0.40345526  0.30271887  0.70693899     1.02900
O51         O  0.38585764  0.31266411  0.74548594    -0.77600
O52         O  0.32969961  0.38606161  0.72914968    -0.77800
C53         C  0.29639738  0.40831916  0.71287617     1.02800
O54         O  0.21104128  0.31394224  0.74609113    -0.85100
O55         O  0.22215867  0.26183625  0.66879431    -0.82200
C56         C  0.22957609  0.22308398  0.68675661     0.98400
O57         O  0.26785406  0.21432361  0.70477451    -0.82200
O58         O  0.34927419  0.22813716  0.74996263    -0.84800
C59         C  0.33435345  0.23434049  0.79021826     1.02800
O60         O  0.31406939  0.27126679  0.80015012    -0.77600
O61         O  0.26091257  0.34919921  0.78970220    -0.77800
C62         C  0.22067114  0.33422800  0.78300790     1.02800
Cr63       Cr  0.24626379  0.32273673  0.68872744     1.93700
Cr64       Cr  0.32282885  0.25122691  0.69076620     1.93200
Cr65       Cr  0.32091461  0.32773047  0.76255123     1.39100
O66         O  0.29685027  0.30088242  0.71390220    -1.22900
O67         O  0.28300293  0.67876405  0.63047976    -0.85100
O68         O  0.26184782  0.62668796  0.70620670    -0.82200
C69         C  0.29889050  0.60580137  0.71496489     0.98400
O70         O  0.33283685  0.62750227  0.73049878    -0.82200
O71         O  0.39086854  0.69910270  0.74912059    -0.84800
C72         C  0.40980418  0.70862985  0.71117105     1.02900
O73         O  0.38703575  0.72650058  0.67914568    -0.77600
O74         O  0.31329589  0.74759361  0.62546335    -0.77800
C75         C  0.30061008  0.71038931  0.60688102     1.02800
O76         O  0.23045885  0.75288173  0.66533842    -0.85100
O77         O  0.21652711  0.70522774  0.74506842    -0.82200
C78         C  0.22507658  0.68451402  0.78194114     0.98400
O79         O  0.26387595  0.66639927  0.78874592    -0.82200
O80         O  0.31840975  0.74258881  0.80082348    -0.84800
C81         C  0.33920907  0.77929107  0.79123661     1.02800
O82         O  0.35452118  0.78569039  0.75103269    -0.77600
O83         O  0.27591212  0.80021828  0.70142440    -0.77800
C84         C  0.23820906  0.79192607  0.68213612     1.02800
Cr85       Cr  0.25180430  0.69233876  0.68879724     1.93700
Cr86       Cr  0.32494732  0.68594125  0.76365991     1.93200
Cr87       Cr  0.33058626  0.76147529  0.69089265     1.39100
O88         O  0.30275277  0.71304140  0.71422831    -1.22900
O89         O  0.38754328  0.67899316  0.28531673    -0.85100
O90         O  0.31389735  0.62450020  0.26452042    -0.82200
C91         C  0.30324102  0.60468395  0.30179511     0.98400
O92         O  0.28571693  0.62719451  0.33432492    -0.82200
O93         O  0.26250548  0.70132971  0.38802184    -0.84800
C94         C  0.29924119  0.71068518  0.40915080     1.02900
O95         O  0.33310623  0.72666838  0.38739906    -0.77600
O96         O  0.38994702  0.74817504  0.31452849    -0.77800
C97         C  0.40999526  0.71133602  0.30299643     1.02800
O98         O  0.35231031  0.75117048  0.22887863    -0.85100
O99         O  0.27432535  0.70076439  0.21442263    -0.82200
C100        C  0.23694545  0.68070719  0.22252132     0.98400
O101        O  0.23050334  0.66184457  0.26101680    -0.82200
O102        O  0.21626753  0.74043562  0.30973724    -0.84800
C103        C  0.22471348  0.77806844  0.32902481     1.02800
O104        O  0.26227513  0.78419065  0.34975258    -0.77600
O105        O  0.31531477  0.79901723  0.27355747    -0.77800
C106        C  0.33563893  0.79047828  0.23636158     1.02800
Cr107      Cr  0.32996067  0.69023857  0.25186466     1.93700
Cr108      Cr  0.25240293  0.68467275  0.32203695     1.93200
Cr109      Cr  0.32383175  0.76086006  0.32935514     1.39100
O110        O  0.30254706  0.71161179  0.30140549    -1.22900
O111        O  0.62888107  0.74559342  0.30925441    -0.85100
O112        O  0.68140825  0.72330084  0.38452165    -0.82200
C113        C  0.71315338  0.70454882  0.40724929     0.98400
O114        O  0.75099625  0.69493249  0.38815212    -0.82200
O115        O  0.72988641  0.62006680  0.33601789    -0.84800
C116        C  0.71100412  0.59744071  0.30445586     1.02900
O117        O  0.70092956  0.61652582  0.26670357    -0.77600
O118        O  0.62911796  0.67435413  0.28591345    -0.77800
C119        C  0.60772434  0.70864012  0.30127145     1.02800
O120        O  0.70672649  0.79098713  0.26919185    -0.85100
O121        O  0.75543681  0.77721863  0.34919958    -0.82200
C122        C  0.79365170  0.76995375  0.33025290     0.98400
O123        O  0.80185973  0.73207175  0.31133037    -0.82200
O124        O  0.78717191  0.65324279  0.26326592    -0.84800
C125        C  0.78079004  0.67087839  0.22419952     1.02800
O126        O  0.74310187  0.68964232  0.21473199    -0.77600
O127        O  0.66773783  0.74332576  0.22638304    -0.77800
C128        C  0.68648356  0.78208697  0.23195495     1.02800
Cr129      Cr  0.69450705  0.75559765  0.32621514     1.93700
Cr130      Cr  0.76399543  0.67712241  0.32325601     1.93200
Cr131      Cr  0.68721313  0.68230021  0.25197636     1.39100
O132        O  0.71494845  0.70462004  0.30075172    -1.22900
O133        O  0.32825925  0.38474845  0.28251941    -0.85100
O134        O  0.38045230  0.30959831  0.26360012    -0.82200
C135        C  0.39962462  0.30029114  0.30149133     0.98400
O136        O  0.37614752  0.28491773  0.33450517    -0.82200
O137        O  0.29955789  0.26345028  0.38685822    -0.84800
C138        C  0.28920782  0.30040062  0.40713411     1.02900
O139        O  0.27373844  0.33372638  0.38451795    -0.77600
O140        O  0.25875389  0.39047525  0.31139132    -0.77800
C141        C  0.29692337  0.40834388  0.30055181     1.02800
O142        O  0.25638161  0.35242529  0.22461954    -0.85100
O143        O  0.30488526  0.27188607  0.21246190    -0.82200
C144        C  0.32614128  0.23539813  0.22166147     0.98400
O145        O  0.34207909  0.22907045  0.26150474    -0.82200
O146        O  0.26276734  0.21645142  0.30861503    -0.84800
C147        C  0.22365594  0.22561997  0.32441391     1.02800
O148        O  0.21611034  0.26391376  0.34352814    -0.77600
O149        O  0.20613957  0.31808738  0.26837496    -0.77800
C150        C  0.21602904  0.33815595  0.23149043     1.02800
Cr151      Cr  0.31568455  0.32770435  0.24945532     1.93700
Cr152      Cr  0.31816056  0.25220360  0.32157120     1.93200
Cr153      Cr  0.24244135  0.32497719  0.32509676     1.39100
O154        O  0.29220250  0.30200801  0.29901884    -1.22900
O155        O  0.61628367  0.30306902  0.26282899    -0.85100
O156        O  0.66818165  0.37857057  0.28580509    -0.82200
C157        C  0.70070374  0.40138730  0.30295364     0.98400
O158        O  0.73893693  0.38251960  0.31150427    -0.82200
O159        O  0.72435496  0.32490823  0.38343959    -0.84800
C160        C  0.70820346  0.29158594  0.40552532     1.02900
O161        O  0.69618049  0.25519407  0.38517757    -0.77600
O162        O  0.62041713  0.27619755  0.33274641    -0.77800
C163        C  0.59715447  0.29326073  0.30057141     1.02800
O164        O  0.69305140  0.26800348  0.21110265    -0.85100
O165        O  0.73929338  0.34860639  0.22633517    -0.82200
C166        C  0.77926426  0.33283329  0.23100547     0.98400
O167        O  0.78966520  0.31043337  0.26640340    -0.82200
O168        O  0.78106974  0.25610230  0.34243826    -0.84800
C169        C  0.77343321  0.21740607  0.32451433     1.02800
O170        O  0.73486390  0.20861920  0.30730080    -0.77600
O171        O  0.65658508  0.22193246  0.25804224    -0.77800
C172        C  0.67429769  0.22991238  0.21915732     1.02800
Cr173      Cr  0.68076352  0.32241179  0.25006256     1.93700
Cr174      Cr  0.75475992  0.31690706  0.32400116     1.93200
Cr175      Cr  0.67884425  0.24422267  0.31951209     1.39100
O176        O  0.70457294  0.29479057  0.29835806    -1.22900
N177        N  0.93371559  0.00007851  0.31629668    -0.36400
N178        N  0.00089350  0.07217650  0.31129815    -0.56900
N179        N  0.07393563  0.00401126  0.30924888    -0.36400
N180        N  0.00660869  0.93218798  0.31645259    -0.56900
C181        C  0.90730845  0.03698507  0.32583414     0.27200
C182        C  0.91000226  0.96251733  0.32939045     0.27200
C183        C  0.09737594  0.04270465  0.31921401     0.27200
C184        C  0.10094452  0.96815237  0.32112281     0.27200
C185        C  0.96277251  0.09677516  0.30236177     0.35800
C186        C  0.03669903  0.09887045  0.29954524     0.35800
C187        C  0.97012774  0.90390311  0.31347646     0.35800
C188        C  0.04420420  0.90597177  0.30956950     0.35800
C189        C  0.86616315  0.02270860  0.34496555    -0.21700
C190        C  0.86766558  0.97567390  0.34677625    -0.21700
C191        C  0.13984382  0.03128405  0.33735272    -0.21700
C192        C  0.14237144  0.98428900  0.33790496    -0.21700
C193        C  0.97429754  0.13915515  0.28419586    -0.22700
C194        C  0.02136879  0.14046946  0.28235896    -0.22700
C195        C  0.98465696  0.85942398  0.30502108    -0.22700
C196        C  0.03152024  0.86072120  0.30258422    -0.22700
C197        C  0.91823770  0.08284971  0.31477838    -0.18100
C198        C  0.92435845  0.91672974  0.32286015    -0.18100
C199        C  0.08970956  0.92140293  0.31525181    -0.18100
C200        C  0.08264123  0.08789128  0.30941004    -0.18100
H201        H  0.83762718  0.04386344  0.35578468     0.14900
H202        H  0.84033975  0.95381574  0.35905822     0.14900
H203        H  0.16659724  0.05436305  0.34858169     0.14900
H204        H  0.17155728  0.96454720  0.34945590     0.14900
H205        H  0.95126584  0.16656365  0.27435836     0.13100
H206        H  0.04196662  0.16914544  0.27092749     0.13100
H207        H  0.96393679  0.82878779  0.30255000     0.13100
H208        H  0.05356113  0.83123948  0.29801909     0.13100
H209        H  0.96362965  0.00013534  0.29690192     0.26400
H210        H  0.04348808  0.00224486  0.29077370     0.26400
N211        N  0.07501109  0.00537254  0.68169496    -0.36400
N212        N  0.00264354  0.07387658  0.68124625    -0.56900
N213        N  0.93511481  0.00095809  0.68209083    -0.36400
N214        N  0.00793874  0.93255625  0.67882024    -0.56900
C215        C  0.09904751  0.04360154  0.67180094     0.27200
C216        C  0.10177710  0.96938125  0.67025787     0.27200
C217        C  0.90709055  0.03743947  0.67574522     0.27200
C218        C  0.91004099  0.96264205  0.67495149     0.27200
C219        C  0.03906498  0.10109844  0.68999479     0.35800
C220        C  0.96476002  0.09931036  0.68940510     0.35800
C221        C  0.04606478  0.90712210  0.68547451     0.35800
C222        C  0.97196703  0.90445970  0.68628318     0.35800
C223        C  0.14148521  0.03181731  0.65368227    -0.21700
C224        C  0.14324022  0.98484311  0.65279321    -0.21700
C225        C  0.86330381  0.02188603  0.66540870    -0.21700
C226        C  0.86522845  0.97484860  0.66473382    -0.21700
C227        C  0.02443980  0.14413177  0.70357579    -0.22700
C228        C  0.97744127  0.14328224  0.70251887    -0.22700
C229        C  0.03437551  0.86251138  0.69676996    -0.22700
C230        C  0.98735491  0.86073415  0.69700371    -0.22700
C231        C  0.08520665  0.08863411  0.68232596    -0.18100
C232        C  0.09115225  0.92307486  0.67855811    -0.18100
C233        C  0.92551590  0.91697356  0.68071639    -0.18100
C234        C  0.91908748  0.08407933  0.68261207    -0.18100
H235        H  0.16868124  0.05468476  0.64294920     0.14900
H236        H  0.17202373  0.96439341  0.64126431     0.14900
H237        H  0.83260655  0.04201361  0.66010329     0.14900
H238        H  0.83647045  0.95226664  0.65856391     0.14900
H239        H  0.04539572  0.17343055  0.71236221     0.13100
H240        H  0.95552672  0.17216065  0.71022735     0.13100
H241        H  0.05727045  0.83409352  0.70357468     0.13100
H242        H  0.96691876  0.83057993  0.70398469     0.13100
H243        H  0.04501229  0.00396070  0.70099726     0.26400
H244        H  0.96795850  0.00192083  0.69564325     0.26400
N245        N  0.36599576  0.00580460  0.93761528    -0.36400
N246        N  0.36344267  0.93759215  0.01055067    -0.56900
N247        N  0.35971762  0.00909486  0.07871336    -0.36400
N248        N  0.36069698  0.07691015  0.00635271    -0.56900
C249        C  0.35439483  0.96742510  0.91432049     0.27200
C250        C  0.35153027  0.04220576  0.91251925     0.27200
C251        C  0.34647361  0.97257406  0.10408050     0.27200
C252        C  0.34663546  0.04720596  0.10163660     0.27200
C253        C  0.37335406  0.91024358  0.97446866     0.35800
C254        C  0.36895282  0.91191250  0.04881862     0.35800
C255        C  0.37005994  0.10233522  0.96888962     0.35800
C256        C  0.36897397  0.10400426  0.04282209     0.35800
C257        C  0.33248983  0.97957344  0.87385679    -0.21700
C258        C  0.33057997  0.02679067  0.87279100    -0.21700
C259        C  0.32534817  0.98779987  0.14397704    -0.21700
C260        C  0.32504577  0.03488413  0.14218713    -0.21700
C261        C  0.38613106  0.86712340  0.98991497    -0.22700
C262        C  0.38295186  0.86805703  0.03699848    -0.22700
C263        C  0.38536207  0.14547839  0.98154499    -0.22700
C264        C  0.38474163  0.14651493  0.02859458    -0.22700
C265        C  0.36435919  0.92188713  0.92817180    -0.18100
C266        C  0.35882135  0.08882396  0.92397776    -0.18100
C267        C  0.35629807  0.09266983  0.08798283    -0.18100
C268        C  0.35594778  0.92621025  0.09337443    -0.18100
H269        H  0.31898362  0.95678381  0.84790879     0.14900
H270        H  0.31549782  0.04739552  0.84584872     0.14900
H271        H  0.31190905  0.96739194  0.17188720     0.14900
H272        H  0.31107386  0.05743075  0.16815761     0.14900
H273        H  0.39481569  0.83749029  0.96933887     0.13100
H274        H  0.38870614  0.83924715  0.05966351     0.13100
H275        H  0.39449061  0.17369528  0.95921322     0.13100
H276        H  0.39322809  0.17571333  0.04982770     0.13100
H277        H  0.38655187  0.00706119  0.96679923     0.26400
H278        H  0.38102282  0.00825730  0.05005172     0.26400
N279        N  0.92595418  0.36415067  0.00661176    -0.36400
N280        N  0.99633914  0.36075017  0.93583909    -0.56900
N281        N  0.06775387  0.36712779  0.00563812    -0.36400
N282        N  0.99722571  0.36506489  0.07617186    -0.56900
C283        C  0.90054102  0.35165890  0.96996924     0.27200
C284        C  0.90137813  0.35345074  0.04447746     0.27200
C285        C  0.09338849  0.35650392  0.96832526     0.27200
C286        C  0.09347662  0.35796210  0.04328909     0.27200
C287        C  0.95870597  0.36549968  0.90903484     0.35800
C288        C  0.03319580  0.36684599  0.90822369     0.35800
C289        C  0.96015272  0.37283619  0.10280778     0.35800
C290        C  0.03417010  0.37334104  0.10272217     0.35800
C291        C  0.85893554  0.33384347  0.98469730    -0.21700
C292        C  0.85966967  0.33451563  0.03171447    -0.21700
C293        C  0.13622451  0.34131828  0.98254005    -0.21700
C294        C  0.13626104  0.34223416  0.02969293    -0.21700
C295        C  0.97164678  0.37448144  0.86421834    -0.22700
C296        C  0.01875281  0.37561711  0.86373387    -0.22700
C297        C  0.97355197  0.38673789  0.14623442    -0.22700
C298        C  0.02053611  0.38682779  0.14624945    -0.22700
C299        C  0.91310637  0.35751405  0.92358248    -0.18100
C300        C  0.91481742  0.36201525  0.09018026    -0.18100
C301        C  0.07986003  0.36451357  0.08956722    -0.18100
C302        C  0.07961267  0.36094956  0.92176749    -0.18100
H303        H  0.83091980  0.32136640  0.96385998     0.14900
H304        H  0.83243251  0.32242625  0.05386744     0.14900
H305        H  0.16451917  0.33014492  0.96124917     0.14900
H306        H  0.16458177  0.33209213  0.05142202     0.14900
H307        H  0.94948423  0.37901495  0.83479932     0.13100
H308        H  0.03992833  0.38152313  0.83380306     0.13100
H309        H  0.95175868  0.39462027  0.17527030     0.13100
H310        H  0.04219022  0.39501572  0.17523744     0.13100
H311        H  0.95623068  0.38295168  0.00572134     0.26400
H312        H  0.03603261  0.38340821  0.00528282     0.26400
N313        N  0.67672324  0.99974961  0.93234368    -0.36400
N314        N  0.67910264  0.93075821  0.00439563    -0.56900
N315        N  0.67273234  0.00280508  0.07231122    -0.36400
N316        N  0.66628641  0.07149478  0.00040510    -0.56900
C317        C  0.66987607  0.96102444  0.90797652     0.27200
C318        C  0.66178666  0.03504288  0.90620575     0.27200
C319        C  0.66543404  0.96552110  0.09906568     0.27200
C320        C  0.66060949  0.04029322  0.09691419     0.27200
C321        C  0.69014873  0.90418624  0.96807449     0.35800
C322        C  0.68721159  0.90541711  0.04236239     0.35800
C323        C  0.67455806  0.09692693  0.96255302     0.35800
C324        C  0.67482270  0.09893196  0.03670210     0.35800
C325        C  0.65061747  0.97178039  0.86580944    -0.21700
C326        C  0.64515225  0.01852522  0.86485344    -0.21700
C327        C  0.64808865  0.97952673  0.14111560    -0.21700
C328        C  0.64543190  0.02666013  0.13991150    -0.16900
C329        C  0.70523689  0.86164980  0.98288301    -0.22700
C330        C  0.70350887  0.86245098  0.02999339    -0.22700
C331        C  0.68837528  0.14065125  0.97476663    -0.22700
C332        C  0.68803741  0.14210494  0.02174879    -0.22700
C333        C  0.68267892  0.91649860  0.92185633    -0.18100
C334        C  0.66671427  0.08188341  0.91727887    -0.18100
C335        C  0.66756238  0.08633309  0.08294694    -0.18100
C336        C  0.67736682  0.91967391  0.08777930    -0.18100
H337        H  0.64153317  0.94839391  0.83848447     0.14900
H338        H  0.63127641  0.03817874  0.83658003     0.14900
H339        H  0.63935496  0.95811450  0.17016549     0.14900
H340        H  0.63455141  0.04829956  0.16800334     0.14900
H341        H  0.71564681  0.83283691  0.96192535     0.13100
H342        H  0.71271051  0.83437693  0.05245895     0.13100
H343        H  0.69743821  0.16874265  0.95226488     0.13100
H344        H  0.69628238  0.17180309  0.04230706     0.13100
H345        H  0.69554437  0.00233258  0.96250711     0.26400
H346        H  0.69071033  0.00323060  0.04155295     0.26400
N347        N  0.93731925  0.66659112  0.00770596    -0.36400
N348        N  0.00443823  0.66386342  0.93554764    -0.56900
N349        N  0.07635100  0.67266628  0.00457456    -0.36400
N350        N  0.00889662  0.67168942  0.07672715    -0.56900
C351        C  0.91153625  0.65263222  0.97185059     0.27200
C352        C  0.91398010  0.65565819  0.04617275     0.27200
C353        C  0.10136964  0.66230527  0.96688481     0.27200
C354        C  0.10375849  0.66629688  0.04151227     0.27200
C355        C  0.96636171  0.67104695  0.91017425     0.35800
C356        C  0.04040855  0.67410961  0.90830805     0.35800
C357        C  0.97193967  0.67984116  0.10337004     0.35800
C358        C  0.04602777  0.68286765  0.10192046     0.35800
C359        C  0.87162341  0.63226244  0.98758693    -0.21700
C360        C  0.87318590  0.63409748  0.03466839    -0.21700
C361        C  0.14532388  0.64964543  0.97999274    -0.21700
C362        C  0.14671750  0.65185008  0.02708327    -0.21700
C363        C  0.97808373  0.68557919  0.86648114    -0.22700
C364        C  0.02512244  0.68716084  0.86514800    -0.22700
C365        C  0.98553135  0.69636467  0.14580196    -0.22700
C366        C  0.03263474  0.69818903  0.14491873    -0.22700
C367        C  0.92147000  0.66177463  0.92550458    -0.18100
C368        C  0.92661252  0.66862553  0.09097501    -0.18100
C369        C  0.09175819  0.67599055  0.08755518    -0.18100
C370        C  0.08675462  0.66866899  0.92108912    -0.18100
H371        H  0.84392242  0.61834843  0.96722075     0.14900
H372        H  0.84682198  0.62187515  0.05779937     0.14900
H373        H  0.17385189  0.64060866  0.95802885     0.14900
H374        H  0.17633811  0.64445803  0.04818100     0.14900
H375        H  0.95522999  0.69366183  0.83838113     0.13100
H376        H  0.04558331  0.69653342  0.83561809     0.13100
H377        H  0.96387153  0.70526075  0.17463855     0.13100
H378        H  0.05450634  0.70893512  0.17288614     0.13100
H379        H  0.96563092  0.68804993  0.00595531     0.26400
H380        H  0.04472369  0.68864340  0.00453260     0.26400
C381        C  0.63029454  0.17414595  0.17182612    -0.21100
C382        C  0.67236485  0.19449656  0.18322837    -0.09100
C383        C  0.71270343  0.17909198  0.16175200     0.29700
C384        C  0.71090364  0.14315859  0.13008128    -0.21100
C385        C  0.66879546  0.12304014  0.11831900    -0.09100
C386        C  0.62832386  0.13918160  0.13901243     0.29800
F387        F  0.58705140  0.12103614  0.12755389    -0.19600
H388        H  0.59891684  0.18571627  0.18806624     0.18100
H389        H  0.74234880  0.13120683  0.11424485     0.18100
F390        F  0.75396547  0.19768665  0.17256063    -0.19600
C391        C  0.85433325  0.31522024  0.19484456    -0.21100
C392        C  0.81391175  0.34134478  0.19528310    -0.09100
C393        C  0.80687672  0.37469466  0.16094865     0.29700
C394        C  0.84032802  0.38213757  0.12754881    -0.21100
C395        C  0.88044172  0.35564155  0.12705210    -0.09100
C396        C  0.88704027  0.32179371  0.16067862     0.29800
F397        F  0.92483096  0.29459256  0.15995009    -0.19600
H398        H  0.86023756  0.28891634  0.22041801     0.18100
H399        H  0.83469977  0.40806614  0.10152218     0.18100
F400        F  0.76788087  0.40014379  0.15952570    -0.19600
C401        C  0.84333259  0.11430982  0.28862482    -0.21100
C402        C  0.88147642  0.11781061  0.31750866    -0.09100
C403        C  0.88362126  0.15347173  0.34980521     0.29700
C404        C  0.84831626  0.18584403  0.35223057    -0.21100
C405        C  0.80996227  0.18236847  0.32322199    -0.09100
C406        C  0.80758511  0.14585383  0.29172578     0.29800
F407        F  0.77112180  0.14095001  0.26325160    -0.19600
H408        H  0.84117575  0.08675703  0.26382776     0.18100
H409        H  0.85076215  0.21333782  0.37705939     0.18100
F410        F  0.91949643  0.15645422  0.37931851    -0.19600
C411        C  0.47379701  0.28472026  0.34243793    -0.21100
C412        C  0.45015527  0.30403114  0.30505932    -0.09100
C413        C  0.47563793  0.32390082  0.26913227     0.29700
C414        C  0.52327515  0.32150310  0.26913457    -0.21100
C415        C  0.54696995  0.29972375  0.30495207    -0.09100
C416        C  0.52184225  0.28274182  0.34261579     0.29800
F417        F  0.54336481  0.26286882  0.37879940    -0.19600
H418        H  0.45510686  0.26970427  0.37083605     0.18100
H419        H  0.54158686  0.33593055  0.24017939     0.18100
F420        F  0.45470642  0.34473726  0.23312448    -0.19600
C421        C  0.18501479  0.38154037  0.16438844    -0.21100
C422        C  0.18027267  0.34570227  0.19632876    -0.09100
C423        C  0.14153859  0.31700854  0.19375690     0.29700
C424        C  0.10931869  0.32319580  0.15883450    -0.21100
C425        C  0.11446332  0.35866990  0.12663199    -0.09100
C426        C  0.15209463  0.38839295  0.13021032     0.29800
F427        F  0.15678278  0.42410130  0.10072594    -0.19600
H428        H  0.21406754  0.40457904  0.16614668     0.18100
H429        H  0.08024101  0.30019412  0.15675344     0.18100
F430        F  0.13534243  0.28226912  0.22417255    -0.19600
C431        C  0.36723893  0.16589861  0.19429195    -0.21100
C432        C  0.33434486  0.20026248  0.18614013    -0.09100
C433        C  0.30960539  0.19974034  0.14469100     0.29700
C434        C  0.31707754  0.16476137  0.11282819    -0.21100
C435        C  0.34962207  0.13030181  0.12146314    -0.09100
C436        C  0.37502604  0.13139188  0.16221951     0.29800
F437        F  0.40717872  0.09888872  0.17105154    -0.19600
H438        H  0.38713712  0.16567119  0.22564306     0.18100
H439        H  0.29715449  0.16421931  0.08148081     0.18100
F440        F  0.27754072  0.23218666  0.13534049    -0.19600
C441        C  0.15579599  0.12320306  0.28340175    -0.21100
C442        C  0.11688912  0.12534012  0.31146798    -0.09100
C443        C  0.11232572  0.16142681  0.34312198     0.29700
C444        C  0.14689722  0.19437547  0.34704447    -0.21100
C445        C  0.18675343  0.19126467  0.32006498    -0.09100
C446        C  0.19065353  0.15543222  0.28783558     0.29800
F447        F  0.22799515  0.15150370  0.26024192    -0.19600
H448        H  0.15958632  0.09573272  0.25868444     0.18100
H449        H  0.14292273  0.22173651  0.37182746     0.18100
F450        F  0.07506443  0.16404076  0.37099078    -0.19600
C451        C  0.67214606  0.52535963  0.28028030    -0.21100
C452        C  0.70279828  0.54770439  0.30997258    -0.09100
C453        C  0.72774573  0.52144258  0.34193069     0.29700
C454        C  0.72472054  0.47365745  0.34129789    -0.21100
C455        C  0.69633696  0.45130458  0.30948012    -0.09100
C456        C  0.66857488  0.47764436  0.28020140     0.29800
F457        F  0.64061531  0.45733995  0.24906384    -0.19600
H458        H  0.65202414  0.54479499  0.25583366     0.18100
H459        H  0.74605025  0.45398558  0.36452153     0.18100
F460        F  0.75729624  0.54149447  0.37173958    -0.19600
C461        C  0.85462614  0.70184051  0.12223544    -0.21100
C462        C  0.89024218  0.66983950  0.12623676    -0.09100
C463        C  0.88968340  0.63782045  0.16211168     0.29700
C464        C  0.85383669  0.63811059  0.19389025    -0.21100
C465        C  0.81780121  0.66989627  0.18978755    -0.09100
C466        C  0.81857878  0.70196437  0.15365421     0.29800
F467        F  0.78514231  0.73409306  0.14920038    -0.19600
H468        H  0.85475811  0.72660477  0.09451308     0.18100
H469        H  0.85400090  0.61315539  0.22141708     0.18100
F470        F  0.92334377  0.60585730  0.16574867    -0.19600
C471        C  0.71299352  0.85555233  0.19587235    -0.21100
C472        C  0.68364816  0.81730226  0.19511243    -0.09100
C473        C  0.65203022  0.81315330  0.15871733     0.29700
C474        C  0.64970541  0.84677155  0.12448903    -0.21100
C475        C  0.67918591  0.88477703  0.12528004    -0.09100
C476        C  0.71092605  0.88887369  0.16131344     0.29800
F477        F  0.74025532  0.92493919  0.16277236    -0.19600
H478        H  0.73798464  0.85948242  0.22305043     0.18100
H479        H  0.62497014  0.84306779  0.09703849     0.18100
F480        F  0.62290395  0.77696129  0.15632063    -0.19600
C481        C  0.84114811  0.82871334  0.36965378    -0.21100
C482        C  0.82786155  0.80654965  0.32910406    -0.09100
C483        C  0.84520833  0.82151880  0.28676979     0.29700
C484        C  0.87547751  0.85838557  0.28504159    -0.21100
C485        C  0.88967141  0.87992312  0.32555392    -0.09100
C486        C  0.87259305  0.86481354  0.36803281     0.29800
F487        F  0.88637817  0.88497306  0.40764839    -0.19600
H488        H  0.82760367  0.81764123  0.40246121     0.18100
H489        H  0.88851198  0.86982094  0.25214937     0.18100
F490        F  0.83169480  0.80138577  0.24704931    -0.19600
C491        C  0.28377491  0.53075973  0.34032281    -0.21100
C492        C  0.30759239  0.55436011  0.30558844    -0.09100
C493        C  0.33202353  0.52902746  0.27247582     0.29700
C494        C  0.33030472  0.48129792  0.27276341    -0.21100
C495        C  0.30370466  0.45799206  0.30541411    -0.09100
C496        C  0.28147457  0.48294820  0.34007540     0.29800
F497        F  0.25692796  0.46120408  0.37316324    -0.19600
H498        H  0.26510286  0.54932527  0.36654026     0.18100
H499        H  0.34794634  0.46262570  0.24588930     0.18100
F500        F  0.35628068  0.55018590  0.23879705    -0.19600
C501        C  0.48534288  0.74442436  0.32619452    -0.21100
C502        C  0.46047440  0.70770636  0.30748599    -0.09100
C503        C  0.48468333  0.66946649  0.29046056     0.29700
C504        C  0.53258183  0.66920839  0.29034836    -0.21100
C505        C  0.55735387  0.70698112  0.30687809    -0.09100
C506        C  0.53318076  0.74422815  0.32595116     0.29800
F507        F  0.55553128  0.78114064  0.34333575    -0.19600
H508        H  0.46778507  0.77413756  0.33993147     0.18100
H509        H  0.55024189  0.63997225  0.27573762     0.18100
F510        F  0.46236250  0.63296422  0.27226384    -0.19600
C511        C  0.16302593  0.71099013  0.11991485    -0.21100
C512        C  0.12881865  0.67731625  0.12247685    -0.09100
C513        C  0.13060978  0.64441014  0.15762155     0.29700
C514        C  0.16598932  0.64552379  0.18991065    -0.21100
C515        C  0.20051814  0.67905966  0.18729621    -0.09100
C516        C  0.19870145  0.71188107  0.15188687     0.29800
F517        F  0.23065379  0.74556153  0.14881518    -0.19600
H518        H  0.16198288  0.73662730  0.09303450     0.18100
H519        H  0.16657008  0.61987788  0.21679386     0.18100
F520        F  0.09836576  0.61096894  0.16033158    -0.19600
C521        C  0.30190152  0.84653656  0.18142418    -0.21100
C522        C  0.34083158  0.82644371  0.20132081    -0.09100
C523        C  0.38460057  0.83895239  0.18554447     0.29700
C524        C  0.38932960  0.87158210  0.15064917    -0.21100
C525        C  0.35045530  0.89118240  0.13014304    -0.09100
C526        C  0.30658407  0.87810097  0.14549921     0.29800
F527        F  0.26841178  0.89597385  0.12571361    -0.19600
H528        H  0.26790305  0.83675412  0.19284350     0.18100
H529        H  0.42332511  0.88141994  0.13932668     0.18100
F530        F  0.42272059  0.81999761  0.20437953    -0.19600
C531        C  0.14626518  0.87598960  0.36123588    -0.21100
C532        C  0.12658335  0.88644811  0.31852783    -0.09100
C533        C  0.13997134  0.86152747  0.27952662     0.29700
C534        C  0.17140402  0.82570147  0.28359147    -0.21100
C535        C  0.19111742  0.81533850  0.32621419    -0.09100
C536        C  0.17915960  0.84129958  0.36495869     0.29800
F537        F  0.19809209  0.83211415  0.40648982    -0.19600
H538        H  0.13590842  0.89464470  0.39165416     0.18100
H539        H  0.18090501  0.80637231  0.25328608     0.18100
F540        F  0.12172191  0.87117034  0.23780070    -0.19600
C541        C  0.26310237  0.69188695  0.53302132    -0.21100
C542        C  0.30250598  0.70571796  0.55669530    -0.09100
C543        C  0.34186663  0.71804562  0.53188208     0.29700
C544        C  0.34128516  0.71762600  0.48386473    -0.21100
C545        C  0.30111483  0.70587493  0.45984847    -0.09100
C546        C  0.26204327  0.69236208  0.48513163     0.29800
F547        F  0.22211733  0.68133432  0.46392333    -0.19600
H548        H  0.23230268  0.68270198  0.55172844     0.18100
H549        H  0.37194591  0.72781388  0.46551470     0.18100
F550        F  0.38074177  0.73064494  0.55410293    -0.19600
C551        C  0.17810302  0.63693143  0.83449992    -0.21100
C552        C  0.18936211  0.68023995  0.81687109    -0.09100
C553        C  0.16670508  0.71938400  0.83320492     0.29700
C554        C  0.13373718  0.71526774  0.86759030    -0.21100
C555        C  0.12207530  0.67201060  0.88493445    -0.09100
C556        C  0.14400107  0.63265890  0.86789821     0.29800
F557        F  0.13260500  0.59041869  0.88380260    -0.19600
H558        H  0.19526133  0.60648593  0.82186198     0.18100
H559        H  0.11697974  0.74576390  0.88061511     0.18100
F560        F  0.17746369  0.76160778  0.81685380    -0.19600
C561        C  0.19897583  0.86055542  0.71390573    -0.21100
C562        C  0.20245316  0.82728729  0.67934016    -0.09100
C563        C  0.16948870  0.82610737  0.64409365     0.29700
C564        C  0.13336719  0.85741604  0.64394436    -0.21100
C565        C  0.12938250  0.88984030  0.67908325    -0.09100
C566        C  0.16246975  0.89148174  0.71400702     0.29800
F567        F  0.15886634  0.92247559  0.74854086    -0.19600
H568        H  0.22367692  0.86164408  0.74162413     0.18100
H569        H  0.10831522  0.85634587  0.61654789     0.18100
F570        F  0.17229073  0.79487978  0.60968893    -0.19600
C571        C  0.38086508  0.84833640  0.82141535    -0.21100
C572        C  0.34657626  0.81481247  0.82713571    -0.09100
C573        C  0.31912718  0.81631329  0.86695351     0.29700
C574        C  0.32554916  0.85080869  0.89965146    -0.21100
C575        C  0.35963645  0.88426055  0.89379248    -0.09100
C576        C  0.38757361  0.88256088  0.85448151     0.29800
F577        F  0.42130768  0.91398933  0.84812881    -0.19600
H578        H  0.40270286  0.84796680  0.79133382     0.18100
H579        H  0.30337268  0.85185176  0.92947929     0.18100
F580        F  0.28506852  0.78536562  0.87376517    -0.19600
C581        C  0.31414173  0.26696767  0.48177651    -0.21100
C582        C  0.29328899  0.30316039  0.45781895    -0.09100
C583        C  0.27486034  0.34009808  0.48303900     0.29700
C584        C  0.27589716  0.33958298  0.53112944    -0.21100
C585        C  0.29522633  0.30238167  0.55503459    -0.09100
C586        C  0.31521053  0.26644347  0.52961113     0.29800
F587        F  0.33523626  0.23013438  0.55077034    -0.19600
H588        H  0.32909456  0.23831619  0.46346345     0.18100
H589        H  0.26036972  0.36778734  0.54965247     0.18100
F590        F  0.25448240  0.37600595  0.46150530    -0.19600
C591        C  0.26311649  0.53190948  0.69133685    -0.21100
C592        C  0.30102691  0.55543085  0.70943954    -0.09100
C593        C  0.33938707  0.53004945  0.72418417     0.29700
C594        C  0.33848336  0.48218701  0.72327022    -0.21100
C595        C  0.29949516  0.45867337  0.70762112    -0.09100
C596        C  0.26229736  0.48413910  0.69016951     0.29800
F597        F  0.22443674  0.46311579  0.67313405    -0.19600
H598        H  0.23337618  0.55045939  0.67901203     0.18100
H599        H  0.36782893  0.46355309  0.73637112     0.18100
F600        F  0.37716880  0.55121822  0.74112849    -0.19600
C601        C  0.15640529  0.12049333  0.71703794    -0.21100
C602        C  0.12124973  0.12423843  0.68441122    -0.09100
C603        C  0.12220521  0.16004314  0.65233014     0.29700
C604        C  0.15771034  0.19196764  0.65327156    -0.21100
C605        C  0.19317431  0.18819785  0.68569325    -0.09100
C606        C  0.19234972  0.15200686  0.71760454     0.29800
F607        F  0.22564410  0.14753117  0.74983506    -0.19600
H608        H  0.15611189  0.09275885  0.74177705     0.18100
H609        H  0.15773551  0.21940055  0.62821105     0.18100
F610        F  0.08921964  0.16359409  0.61969293    -0.19600
C611        C  0.37337300  0.16273539  0.81751044    -0.21100
C612        C  0.34113348  0.19792185  0.82523391    -0.09100
C613        C  0.31457926  0.19662147  0.86559442     0.29700
C614        C  0.31958903  0.16041736  0.89671105    -0.21100
C615        C  0.35181935  0.12538516  0.88888599    -0.09100
C616        C  0.37894699  0.12703063  0.84914349     0.29800
F617        F  0.41147766  0.09460782  0.84148379    -0.19600
H618        H  0.39464776  0.16301845  0.78703041     0.18100
H619        H  0.29856784  0.15989049  0.92738131     0.18100
F620        F  0.28324803  0.22983406  0.87474598    -0.19600
C621        C  0.18819613  0.37724701  0.85029951    -0.21100
C622        C  0.18433411  0.34156700  0.81806306    -0.09100
C623        C  0.14513626  0.31338544  0.81939418     0.29700
C624        C  0.11151676  0.31994017  0.85303241    -0.21100
C625        C  0.11532303  0.35554019  0.88519869    -0.09100
C626        C  0.15376067  0.38464297  0.88311706     0.29800
F627        F  0.15797682  0.42011306  0.91293256    -0.19600
H628        H  0.21761240  0.39988828  0.84968659     0.18100
H629        H  0.08235330  0.29698641  0.85412887     0.18100
F630        F  0.13963665  0.27878141  0.78879666    -0.19600
C631        C  0.73899105  0.32043807  0.47933816    -0.21100
C632        C  0.70629947  0.29411782  0.45583882    -0.09100
C633        C  0.67373927  0.26898734  0.48089588     0.29700
C634        C  0.67416286  0.27018086  0.52875630    -0.21100
C635        C  0.70765950  0.29556557  0.55234252    -0.09100
C636        C  0.74013534  0.32077538  0.52714123     0.29800
F637        F  0.77319139  0.34551185  0.54855819    -0.19600
H638        H  0.76468602  0.33970740  0.46063609     0.18100
H639        H  0.64897566  0.25018495  0.54737274     0.18100
F640        F  0.64152097  0.24339300  0.45919187    -0.19600
C641        C  0.52588468  0.33877561  0.72701259    -0.21100
C642        C  0.54963315  0.30727928  0.69943073    -0.09100
C643        C  0.52481561  0.27913000  0.66915240     0.29700
C644        C  0.47691211  0.28000459  0.66945026    -0.21100
C645        C  0.45319844  0.30857013  0.70017592    -0.09100
C646        C  0.47809380  0.33937159  0.72759509     0.29800
F647        F  0.45630976  0.36899548  0.75616689    -0.19600
H648        H  0.54423999  0.36127945  0.75012249     0.18100
H649        H  0.45844841  0.25646365  0.64748758     0.18100
F650        F  0.54672800  0.24978037  0.64037110    -0.19600
C651        C  0.69484258  0.14645594  0.80828963    -0.21100
C652        C  0.66640861  0.18518644  0.81187354    -0.09100
C653        C  0.63619057  0.18884621  0.84939760     0.29700
C654        C  0.63513768  0.15433799  0.88273844    -0.21100
C655        C  0.66490497  0.11646839  0.87978193    -0.09100
C656        C  0.69449266  0.11270595  0.84193798     0.29800
F657        F  0.72406318  0.07695794  0.83804149    -0.19600
H658        H  0.71861171  0.14278146  0.77992894     0.18100
H659        H  0.61180773  0.15758448  0.91150871     0.18100
F660        F  0.60784491  0.22551284  0.85398995    -0.19600
C661        C  0.82422358  0.16432353  0.64335164    -0.21100
C662        C  0.81562975  0.18907466  0.68369191    -0.09100
C663        C  0.83922813  0.17762430  0.72406428     0.29700
C664        C  0.87136012  0.14216131  0.72386084    -0.21100
C665        C  0.88184572  0.11894696  0.68302942    -0.09100
C666        C  0.85770153  0.12999411  0.64271629     0.29800
F667        F  0.86665929  0.10771328  0.60282219    -0.19600
H668        H  0.80595350  0.17252657  0.61205370     0.18100
H669        H  0.88913134  0.13355450  0.75533201     0.18100
F670        F  0.83061036  0.20022267  0.76383797    -0.19600
C671        C  0.85203227  0.38872739  0.87181773    -0.21100
C672        C  0.87684225  0.35102159  0.88851675    -0.09100
C673        C  0.86496600  0.30661454  0.87428136     0.29700
C674        C  0.82893774  0.30003879  0.84344257    -0.21100
C675        C  0.80492706  0.33770443  0.82583930    -0.09100
C676        C  0.81645969  0.38219315  0.84025606     0.29800
F677        F  0.79306429  0.41907779  0.82407563    -0.19600
H678        H  0.86031503  0.42305843  0.88323431     0.18100
H679        H  0.82050316  0.26564054  0.83236945     0.18100
F680        F  0.88806285  0.26969392  0.89067940    -0.19600
C681        C  0.74196023  0.67342629  0.52961001    -0.21100
C682        C  0.70773034  0.69705717  0.55379326    -0.09100
C683        C  0.67077040  0.71632708  0.52921978     0.29700
C684        C  0.67124129  0.71646450  0.48127002    -0.21100
C685        C  0.70805133  0.69684183  0.45714353    -0.09100
C686        C  0.74200313  0.67286536  0.48181108     0.29800
F687        F  0.77637986  0.65030595  0.45991627    -0.19600
H688        H  0.76980532  0.65672310  0.54766258     0.18100
H689        H  0.64391009  0.73392551  0.46315175     0.18100
F690        F  0.63549058  0.73735665  0.55121886    -0.19600
C691        C  0.48374781  0.73085675  0.67512187    -0.21100
C692        C  0.45964421  0.70238472  0.70559825    -0.09100
C693        C  0.48410155  0.67097934  0.73284032     0.29700
C694        C  0.53197125  0.67019531  0.73142169    -0.21100
C695        C  0.55614297  0.70118892  0.70351253    -0.09100
C696        C  0.53156757  0.73062450  0.67427296     0.29800
F697        F  0.55366988  0.76008457  0.64577207    -0.19600
H698        H  0.46564761  0.75506455  0.65351191     0.18100
H699        H  0.55014202  0.64690073  0.75395506     0.18100
F700        F  0.46189839  0.64184802  0.76161506    -0.19600
C701        C  0.67922433  0.47770114  0.73346472    -0.21100
C702        C  0.70691157  0.45350039  0.70235210    -0.09100
C703        C  0.73384549  0.47798616  0.67062044     0.29700
C704        C  0.73443188  0.52581974  0.67177251    -0.21100
C705        C  0.70844536  0.54979502  0.70456973    -0.09100
C706        C  0.67987435  0.52531220  0.73465888     0.29800
F707        F  0.65305729  0.54723432  0.76581218    -0.19600
H708        H  0.65771814  0.45968426  0.75784569     0.18100
H709        H  0.75673150  0.54399766  0.64823687     0.18100
F710        F  0.76145823  0.45595612  0.64024502    -0.19600
C711        C  0.71730631  0.84962362  0.81642639    -0.21100
C712        C  0.68141792  0.81770025  0.81328650    -0.09100
C713        C  0.64671944  0.81762587  0.84688219     0.29700
C714        C  0.64826006  0.84887933  0.88306834    -0.21100
C715        C  0.68422316  0.88052715  0.88617998    -0.09100
C716        C  0.71882990  0.88078243  0.85265980     0.29800
F717        F  0.75377918  0.91140832  0.85484440    -0.19600
H718        H  0.74452478  0.85008100  0.79110072     0.18100
H719        H  0.62083403  0.84920454  0.90817215     0.18100
F720        F  0.61064636  0.78838823  0.84401167    -0.19600
C721        C  0.84585750  0.63451188  0.82348665    -0.21100
C722        C  0.81246390  0.66916809  0.82664091    -0.09100
C723        C  0.81362980  0.69956573  0.86415554     0.29700
C724        C  0.84885132  0.69643091  0.89647173    -0.21100
C725        C  0.88301025  0.66279402  0.89225281    -0.09100
C726        C  0.88065367  0.63106492  0.85619636     0.29800
F727        F  0.91219770  0.59702493  0.85252875    -0.19600
H728        H  0.84517297  0.61015265  0.79547303     0.18100
H729        H  0.85007977  0.72086215  0.92441868     0.18100
F730        F  0.78192310  0.73338558  0.86872297    -0.19600
C731        C  0.87500430  0.86172381  0.72192182    -0.21100
C732        C  0.89093191  0.87991093  0.68036369    -0.09100
C733        C  0.87391049  0.86289547  0.63867393     0.29700
C734        C  0.84082155  0.82824943  0.63870953    -0.21100
C735        C  0.82531606  0.80969178  0.68029170    -0.09100
C736        C  0.84263531  0.82650944  0.72195293     0.29800
F737        F  0.82725669  0.80969156  0.76259487    -0.19600
H738        H  0.88780653  0.87481278  0.75422843     0.18100
H739        H  0.82774492  0.81545845  0.60639461     0.18100
F740        F  0.88922931  0.88003029  0.59815891    -0.19600
loop_ 
_geom_bond_atom_site_label_1 
_geom_bond_atom_site_label_2 
_geom_bond_distance 
_geom_bond_site_symmetry_2 
_ccdc_geom_bond_type 
O1          Cr19   1.964       .  S
O1            C9   1.258       .  A
O2          Cr19   2.007       .  S
O2            C3   1.267       .  A
C3            O4   1.259       .  A
C3          C695   1.474       .  S
O4          Cr20   1.968       .  S
O5          Cr20   2.001       .  S
O5            C6   1.267       .  A
C6            O7   1.258       .  A
C6          C705   1.470       .  S
O7          Cr21   1.962       .  S
O8          Cr21   2.014       .  S
O8            C9   1.270       .  A
C9          C682   1.478       .  S
O10         Cr19   2.014       .  S
O10          C18   1.265       .  A
O11         Cr19   1.970       .  S
O11          C12   1.259       .  A
C12          O13   1.265       .  A
C12         C712   1.471       .  S
O13         Cr20   2.005       .  S
O14         Cr20   1.973       .  S
O14          C15   1.259       .  A
C15          O16   1.267       .  A
C15         C722   1.477       .  S
O16         Cr21   2.011       .  S
O17         Cr21   1.971       .  S
O17          C18   1.257       .  A
C18         C735   1.465       .  S
Cr19         O22   1.763       .  S
Cr20         O22   1.762       .  S
Cr21         O22   1.761       .  S
O23         Cr41   2.012       .  S
O23          C31   1.268       .  A
O24         Cr41   1.970       .  S
O24          C25   1.261       .  A
C25          O26   1.267       .  A
C25         C702   1.472       .  S
O26         Cr42   1.998       .  S
O27         Cr42   1.970       .  S
O27          C28   1.259       .  A
C28          O29   1.265       .  A
C28         C642   1.473       .  S
O29         Cr43   2.001       .  S
O30         Cr43   1.960       .  S
O30          C31   1.257       .  A
C31         C635   1.474       .  S
O32         Cr41   1.976       .  S
O32          C40   1.259       .  A
O33         Cr41   2.006       .  S
O33          C34   1.263       .  A
C34          O35   1.260       .  A
C34         C675   1.466       .  S
O35         Cr42   1.983       .  S
O36         Cr42   2.012       .  S
O36          C37   1.266       .  A
C37          O38   1.257       .  A
C37         C652   1.474       .  S
O38         Cr43   1.955       .  S
O39         Cr43   2.008       .  S
O39          C40   1.264       .  A
C40         C662   1.468       .  S
Cr41         O44   1.764       .  S
Cr42         O44   1.765       .  S
Cr43         O44   1.766       .  S
O45         Cr63   1.996       .  S
O45          C53   1.264       .  A
O46         Cr63   1.984       .  S
O46          C47   1.262       .  A
C47          O48   1.266       .  A
C47         C585   1.487       .  S
O48         Cr64   2.006       .  S
O49         Cr64   1.970       .  S
O49          C50   1.260       .  A
C50          O51   1.268       .  A
C50         C645   1.473       .  S
O51         Cr65   2.006       .  S
O52         Cr65   1.977       .  S
O52          C53   1.261       .  A
C53         C595   1.480       .  S
O54         Cr63   1.978       .  S
O54          C62   1.261       .  A
O55         Cr63   1.998       .  S
O55          C56   1.264       .  A
C56          O57   1.260       .  A
C56         C605   1.472       .  S
O57         Cr64   1.974       .  S
O58         Cr64   2.007       .  S
O58          C59   1.264       .  A
C59          O60   1.262       .  A
C59         C612   1.486       .  S
O60         Cr65   1.988       .  S
O61         Cr65   2.019       .  S
O61          C62   1.268       .  A
C62         C622   1.487       .  S
Cr63         O66   1.766       .  S
Cr64         O66   1.768       .  S
Cr65         O66   1.767       .  S
O67         Cr85   1.967       .  S
O67          C75   1.260       .  A
O68         Cr85   2.002       .  S
O68          C69   1.266       .  A
C69          O70   1.260       .  A
C69         C592   1.480       .  S
O70         Cr86   1.974       .  S
O71         Cr86   2.005       .  S
O71          C72   1.267       .  A
C72          O73   1.259       .  A
C72         C692   1.473       .  S
O73         Cr87   1.966       .  S
O74         Cr87   2.015       .  S
O74          C75   1.269       .  A
C75         C542   1.470       .  S
O76         Cr85   1.993       .  S
O76          C84   1.261       .  A
O77         Cr85   1.971       .  S
O77          C78   1.258       .  A
C78          O79   1.264       .  A
C78         C552   1.461       .  S
O79         Cr86   2.007       .  S
O80         Cr86   1.986       .  S
O80          C81   1.262       .  A
C81          O82   1.267       .  A
C81         C572   1.489       .  S
O82         Cr87   2.016       .  S
O83         Cr87   1.977       .  S
O83          C84   1.259       .  A
C84         C562   1.468       .  S
Cr85         O88   1.768       .  S
Cr86         O88   1.766       .  S
Cr87         O88   1.766       .  S
O89        Cr107   1.970       .  S
O89          C97   1.260       .  A
O90        Cr107   2.009       .  S
O90          C91   1.269       .  A
C91          O92   1.261       .  A
C91         C492   1.478       .  S
O92        Cr108   1.970       .  S
O93        Cr108   2.006       .  S
O93          C94   1.266       .  A
C94          O95   1.262       .  A
C94         C545   1.485       .  S
O95        Cr109   1.982       .  S
O96        Cr109   2.009       .  S
O96          C97   1.268       .  A
C97         C502   1.481       .  S
O98        Cr107   2.008       .  S
O98         C106   1.264       .  A
O99        Cr107   1.980       .  S
O99         C100   1.259       .  A
C100        O101   1.263       .  A
C100        C515   1.479       .  S
O101       Cr108   2.005       .  S
O102       Cr108   1.970       .  S
O102        C103   1.259       .  A
C103        O104   1.264       .  A
C103        C535   1.465       .  S
O104       Cr109   2.008       .  S
O105       Cr109   1.986       .  S
O105        C106   1.260       .  A
C106        C522   1.472       .  S
Cr107       O110   1.764       .  S
Cr108       O110   1.765       .  S
Cr109       O110   1.766       .  S
O111       Cr129   1.999       .  S
O111        C119   1.264       .  A
O112       Cr129   1.980       .  S
O112        C113   1.263       .  A
C113        O114   1.267       .  A
C113        C685   1.479       .  S
O114       Cr130   1.998       .  S
O115       Cr130   1.975       .  S
O115        C116   1.260       .  A
C116        O117   1.268       .  A
C116        C452   1.480       .  S
O117       Cr131   2.006       .  S
O118       Cr131   1.974       .  S
O118        C119   1.261       .  A
C119        C505   1.478       .  S
O120       Cr129   1.988       .  S
O120        C128   1.263       .  A
O121       Cr129   2.002       .  S
O121        C122   1.261       .  A
C122        O123   1.258       .  A
C122        C482   1.462       .  S
O123       Cr130   1.978       .  S
O124       Cr130   2.000       .  S
O124        C125   1.263       .  A
C125        O126   1.258       .  A
C125        C465   1.473       .  S
O126       Cr131   1.969       .  S
O127       Cr131   2.012       .  S
O127        C128   1.267       .  A
C128        C472   1.488       .  S
Cr129       O132   1.766       .  S
Cr130       O132   1.766       .  S
Cr131       O132   1.762       .  S
O133       Cr151   1.959       .  S
O133        C141   1.258       .  A
O134       Cr151   2.004       .  S
O134        C135   1.268       .  A
C135        O136   1.263       .  A
C135        C412   1.481       .  S
O136       Cr152   1.979       .  S
O137       Cr152   2.005       .  S
O137        C138   1.266       .  A
C138        O139   1.258       .  A
C138        C582   1.485       .  S
O139       Cr153   1.976       .  S
O140       Cr153   2.009       .  S
O140        C141   1.269       .  A
C141        C495   1.469       .  S
O142       Cr151   2.008       .  S
O142        C150   1.264       .  A
O143       Cr151   1.980       .  S
O143        C144   1.260       .  A
C144        O145   1.265       .  A
C144        C432   1.477       .  S
O145       Cr152   2.001       .  S
O146       Cr152   1.961       .  S
O146        C147   1.258       .  A
C147        O148   1.268       .  A
C147        C445   1.477       .  S
O148       Cr153   2.013       .  S
O149       Cr153   1.975       .  S
O149        C150   1.257       .  A
C150        C422   1.479       .  S
Cr151       O154   1.765       .  S
Cr152       O154   1.765       .  S
Cr153       O154   1.769       .  S
O155       Cr173   1.998       .  S
O155        C163   1.266       .  A
O156       Cr173   1.976       .  S
O156        C157   1.263       .  A
C157        O158   1.268       .  A
C157        C455   1.474       .  S
O158       Cr174   2.002       .  S
O159       Cr174   1.959       .  S
O159        C160   1.257       .  A
C160        O161   1.267       .  A
C160        C632   1.470       .  S
O161       Cr175   2.006       .  S
O162       Cr175   1.979       .  S
O162        C163   1.260       .  A
C163        C415   1.480       .  S
O164       Cr173   1.985       .  S
O164        C172   1.261       .  A
O165       Cr173   1.993       .  S
O165        C166   1.260       .  A
C166        O167   1.258       .  A
C166        C392   1.471       .  S
O167       Cr174   1.971       .  S
O168       Cr174   2.005       .  S
O168        C169   1.264       .  A
C169        O170   1.259       .  A
C169        C405   1.476       .  S
O170       Cr175   1.967       .  S
O171       Cr175   2.015       .  S
O171        C172   1.267       .  A
C172        C382   1.473       .  S
Cr173       O176   1.764       .  S
Cr174       O176   1.767       .  S
Cr175       O176   1.766       .  S
N177        C182   1.351   1_545  A
N177        C181   1.352       .  A
N177        H209   1.039       .  S
N178        C185   1.348   1_455  A
N178        C186   1.347       .  A
N179        C184   1.354   1_545  A
N179        C183   1.352       .  A
N179        H210   1.040       .  S
N180        C187   1.350   1_455  A
N180        C188   1.351       .  A
C181        C189   1.387       .  A
C181        C197   1.413       .  A
C182        C198   1.413       .  A
C182        C190   1.388       .  A
C183        C191   1.387       .  A
C183        C200   1.415       .  A
C184        C199   1.414       .  A
C184        C192   1.387       .  A
C185        C197   1.408       .  A
C185        C193   1.386       .  A
C186        C200   1.407       .  A
C186        C194   1.387       .  A
C187        C195   1.387       .  A
C187        C198   1.412       .  A
C188        C196   1.387       .  A
C188        C199   1.411       .  A
C189        C190   1.374   1_545  A
C189        H201   1.082       .  S
C190        H202   1.081       .  S
C191        C192   1.373   1_545  A
C191        H203   1.082       .  S
C192        H204   1.081       .  S
C193        C194   1.374   1_655  A
C193        H205   1.082       .  S
C194        H206   1.082       .  S
C195        C196   1.369   1_655  A
C195        H207   1.082       .  S
C196        H208   1.081       .  S
C197        C402   1.481       .  S
C198        C485   1.478       .  S
C199        C532   1.484       .  S
C200        C442   1.482       .  S
N211        C216   1.350   1_545  A
N211        C215   1.349       .  A
N211        H243   1.040       .  S
N212        C219   1.351       .  A
N212        C220   1.351   1_455  A
N213        C218   1.353   1_545  A
N213        C217   1.354       .  A
N213        H244   1.037       .  S
N214        C221   1.350       .  A
N214        C222   1.349   1_455  A
C215        C223   1.388       .  A
C215        C231   1.408       .  A
C216        C232   1.407       .  A
C216        C224   1.387       .  A
C217        C225   1.389       .  A
C217        C234   1.420       .  A
C218        C233   1.416       .  A
C218        C226   1.387       .  A
C219        C231   1.411       .  A
C219        C227   1.384       .  A
C220        C234   1.418       .  A
C220        C228   1.389       .  A
C221        C229   1.385       .  A
C221        C232   1.409       .  A
C222        C230   1.387       .  A
C222        C233   1.412       .  A
C223        C224   1.372   1_545  A
C223        H235   1.082       .  S
C224        H236   1.083       .  S
C225        C226   1.374   1_545  A
C225        H237   1.081       .  S
C226        H238   1.082       .  S
C227        C228   1.371   1_455  A
C227        H239   1.082       .  S
C228        H240   1.081       .  S
C229        C230   1.372   1_455  A
C229        H241   1.082       .  S
C230        H242   1.082       .  S
C231        C602   1.480       .  S
C232        C565   1.477       .  S
C233        C732   1.479       .  S
C234        C665   1.487       .  S
N245        C250   1.356       .  A
N245        C249   1.353   1_545  A
N245        H277   1.042       .  S
N246        C253   1.351   1_554  A
N246        C254   1.353       .  A
N247        C252   1.352       .  A
N247        C251   1.353   1_545  A
N247        H278   1.041       .  S
N248        C255   1.348   1_554  A
N248        C256   1.347       .  A
C249        C257   1.388       .  A
C249        C265   1.418       .  A
C250        C266   1.417       .  A
C250        C258   1.385       .  A
C251        C259   1.388       .  A
C251        C268   1.415       .  A
C252        C267   1.413       .  A
C252        C260   1.386       .  A
C253        C265   1.416       .  A
C253        C261   1.387       .  A
C254        C268   1.416       .  A
C254        C262   1.386       .  A
C255        C263   1.386       .  A
C255        C266   1.407       .  A
C256        C264   1.386       .  A
C256        C267   1.406       .  A
C257        C258   1.379   1_565  A
C257        H269   1.082       .  S
C258        H270   1.082       .  S
C259        C260   1.375   1_565  A
C259        H271   1.081       .  S
C260        H272   1.082       .  S
C261        C262   1.376   1_556  A
C261        H273   1.082       .  S
C262        H274   1.082       .  S
C263        C264   1.372   1_556  A
C263        H275   1.082       .  S
C264        H276   1.082       .  S
C265        C575   1.494       .  S
C266        C615   1.491       .  S
C267        C435   1.482       .  S
C268        C525   1.489       .  S
N279        C284   1.352       .  A
N279        C283   1.351   1_554  A
N279        H311   1.040       .  S
N280        C287   1.355       .  A
N280        C288   1.354   1_655  A
N281        C286   1.356       .  A
N281        C285   1.355   1_554  A
N281        H312   1.039       .  S
N282        C289   1.349       .  A
N282        C290   1.349   1_655  A
C283        C291   1.388       .  A
C283        C299   1.411       .  A
C284        C300   1.412       .  A
C284        C292   1.387       .  A
C285        C293   1.388       .  A
C285        C302   1.422       .  A
C286        C301   1.419       .  A
C286        C294   1.386       .  A
C287        C299   1.414       .  A
C287        C295   1.384       .  A
C288        C302   1.420       .  A
C288        C296   1.388       .  A
C289        C297   1.386       .  A
C289        C300   1.409       .  A
C290        C298   1.386       .  A
C290        C301   1.409       .  A
C291        C292   1.371   1_556  A
C291        H303   1.082       .  S
C292        H304   1.082       .  S
C293        C294   1.375   1_556  A
C293        H305   1.082       .  S
C294        H306   1.082       .  S
C295        C296   1.374   1_655  A
C295        H307   1.082       .  S
C296        H308   1.082       .  S
C297        C298   1.370   1_655  A
C297        H309   1.082       .  S
C298        H310   1.082       .  S
C299        C672   1.484       .  S
C300        C395   1.480       .  S
C301        C425   1.489       .  S
C302        C625   1.497       .  S
N313        C318   1.352   1_565  A
N313        C317   1.350       .  A
N313        H345   1.040   1_565  S
N314        C321   1.351   1_554  A
N314        C322   1.351       .  A
N315        C320   1.355       .  A
N315        C319   1.355   1_545  A
N315        H346   1.038       .  S
N316        C323   1.351   1_554  A
N316        C324   1.351       .  A
C317        C325   1.388       .  A
C317        C333   1.410       .  A
C318        C334   1.412       .  A
C318        C326   1.387       .  A
C319        C327   1.387       .  A
C319        C336   1.421       .  A
C320        C335   1.418       .  A
C320        C328   1.387       .  A
C321        C333   1.411       .  A
C321        C329   1.385       .  A
C322        C336   1.417       .  A
C322        C330   1.388       .  A
C323        C331   1.385       .  A
C323        C334   1.410       .  A
C324        C332   1.387       .  A
C324        C335   1.413       .  A
C325        C326   1.373   1_565  A
C325        H337   1.082       .  S
C326        H338   1.082       .  S
C327        C328   1.378   1_565  A
C327        H339   1.082       .  S
C328        H340   1.081       .  S
C329        C330   1.374   1_556  A
C329        H341   1.083       .  S
C330        H342   1.082       .  S
C331        C332   1.370   1_556  A
C331        H343   1.082       .  S
C332        H344   1.081       .  S
C333        C715   1.479       .  S
C334        C655   1.488       .  S
C335        C385   1.488       .  S
C336        C475   1.494       .  S
N347        C352   1.349       .  A
N347        C351   1.351   1_554  A
N347        H379   1.038       .  S
N348        C355   1.351   1_455  A
N348        C356   1.348       .  A
N349        C354   1.354       .  A
N349        C353   1.352   1_554  A
N349        H380   1.033       .  S
N350        C357   1.349   1_455  A
N350        C358   1.349       .  A
C351        C359   1.385       .  A
C351        C367   1.407       .  A
C352        C368   1.409       .  A
C352        C360   1.388       .  A
C353        C361   1.387       .  A
C353        C370   1.414       .  A
C354        C369   1.415       .  A
C354        C362   1.386       .  A
C355        C367   1.409       .  A
C355        C363   1.385       .  A
C356        C370   1.411       .  A
C356        C364   1.388       .  A
C357        C365   1.386       .  A
C357        C368   1.409       .  A
C358        C366   1.387       .  A
C358        C369   1.411       .  A
C359        C360   1.374   1_556  A
C359        H371   1.082       .  S
C360        H372   1.082       .  S
C361        C362   1.375   1_556  A
C361        H373   1.082       .  S
C362        H374   1.082       .  S
C363        C364   1.373   1_655  A
C363        H375   1.082       .  S
C364        H376   1.082       .  S
C365        C366   1.375   1_655  A
C365        H377   1.082       .  S
C366        H378   1.082       .  S
C367        C725   1.483       .  S
C368        C462   1.476       .  S
C369        C512   1.486       .  S
C370        C555   1.476       .  S
C381        C382   1.404       .  A
C381        C386   1.400       .  A
C381        H388   1.083       .  S
C382        C383   1.405       .  A
C383        C384   1.398       .  A
C383        F390   1.358       .  S
C384        C385   1.404       .  A
C384        H389   1.083       .  S
C385        C386   1.406       .  A
C386        F387   1.357       .  S
C391        C392   1.403       .  A
C391        C396   1.391       .  A
C391        H398   1.083       .  S
C392        C393   1.410       .  A
C393        C394   1.394       .  A
C393        F400   1.358       .  S
C394        C395   1.401       .  A
C394        H399   1.084       .  S
C395        C396   1.404       .  A
C396        F397   1.357       .  S
C401        C402   1.400       .  A
C401        C406   1.393       .  A
C401        H408   1.083       .  S
C402        C403   1.405       .  A
C403        C404   1.398       .  A
C403        F410   1.358       .  S
C404        C405   1.407       .  A
C404        H409   1.083       .  S
C405        C406   1.409       .  A
C406        F407   1.357       .  S
C411        C412   1.407       .  A
C411        C416   1.402       .  A
C411        H418   1.083       .  S
C412        C413   1.408       .  A
C413        C414   1.391       .  A
C413        F420   1.358       .  S
C414        C415   1.404       .  A
C414        H419   1.083       .  S
C415        C416   1.409       .  A
C416        F417   1.357       .  S
C421        C422   1.406       .  A
C421        C426   1.398       .  A
C421        H428   1.083       .  S
C422        C423   1.408       .  A
C423        C424   1.397       .  A
C423        F430   1.358       .  S
C424        C425   1.405       .  A
C424        H429   1.084       .  S
C425        C426   1.403       .  A
C426        F427   1.357       .  S
C431        C432   1.407       .  A
C431        C436   1.393       .  A
C431        H438   1.083       .  S
C432        C433   1.408       .  A
C433        C434   1.397       .  A
C433        F440   1.358       .  S
C434        C435   1.405       .  A
C434        H439   1.083       .  S
C435        C436   1.401       .  A
C436        F437   1.358       .  S
C441        C442   1.399       .  A
C441        C446   1.391       .  A
C441        H448   1.084       .  S
C442        C443   1.407       .  A
C443        C444   1.398       .  A
C443        F450   1.358       .  S
C444        C445   1.405       .  A
C444        H449   1.083       .  S
C445        C446   1.410       .  A
C446        F447   1.358       .  S
C451        C452   1.406       .  A
C451        C456   1.396       .  A
C451        H458   1.083       .  S
C452        C453   1.408       .  A
C453        C454   1.397       .  A
C453        F460   1.358       .  S
C454        C455   1.405       .  A
C454        H459   1.084       .  S
C455        C456   1.405       .  A
C456        F457   1.357       .  S
C461        C462   1.401       .  A
C461        C466   1.393       .  A
C461        H468   1.084       .  S
C462        C463   1.402       .  A
C463        C464   1.396       .  A
C463        F470   1.357       .  S
C464        C465   1.406       .  A
C464        H469   1.083       .  S
C465        C466   1.408       .  A
C466        F467   1.358       .  S
C471        C472   1.407       .  A
C471        C476   1.401       .  A
C471        H478   1.083       .  S
C472        C473   1.412       .  A
C473        C474   1.400       .  A
C473        F480   1.358       .  S
C474        C475   1.404       .  A
C474        H479   1.083       .  S
C475        C476   1.406       .  A
C476        F477   1.357       .  S
C481        C482   1.403       .  A
C481        C486   1.398       .  A
C481        H488   1.083       .  S
C482        C483   1.403       .  A
C483        C484   1.393       .  A
C483        F490   1.358       .  S
C484        C485   1.401       .  A
C484        H489   1.083       .  S
C485        C486   1.405       .  A
C486        F487   1.358       .  S
C491        C492   1.407       .  A
C491        C496   1.397       .  A
C491        H498   1.083       .  S
C492        C493   1.408       .  A
C493        C494   1.394       .  A
C493        F500   1.358       .  S
C494        C495   1.403       .  A
C494        H499   1.084       .  S
C495        C496   1.403       .  A
C496        F497   1.358       .  S
C501        C502   1.405       .  A
C501        C506   1.395       .  A
C501        H508   1.083       .  S
C502        C503   1.410       .  A
C503        C504   1.397       .  A
C503        F510   1.357       .  S
C504        C505   1.404       .  A
C504        H509   1.083       .  S
C505        C506   1.409       .  A
C506        F507   1.358       .  S
C511        C512   1.402       .  A
C511        C516   1.398       .  A
C511        H518   1.083       .  S
C512        C513   1.404       .  A
C513        C514   1.398       .  A
C513        F520   1.358       .  S
C514        C515   1.406       .  A
C514        H519   1.083       .  S
C515        C516   1.408       .  A
C516        F517   1.358       .  S
C521        C522   1.403       .  A
C521        C526   1.401       .  A
C521        H528   1.084       .  S
C522        C523   1.404       .  A
C523        C524   1.399       .  A
C523        F530   1.357       .  S
C524        C525   1.403       .  A
C524        H529   1.083       .  S
C525        C526   1.408       .  A
C526        F527   1.358       .  S
C531        C532   1.405       .  A
C531        C536   1.398       .  A
C531        H538   1.083       .  S
C532        C533   1.405       .  A
C533        C534   1.395       .  A
C533        F540   1.357       .  S
C534        C535   1.402       .  A
C534        H539   1.084       .  S
C535        C536   1.404       .  A
C536        F537   1.358       .  S
C541        C542   1.401       .  A
C541        C546   1.396       .  A
C541        H548   1.084       .  S
C542        C543   1.403       .  A
C543        C544   1.400       .  A
C543        F550   1.357       .  S
C544        C545   1.408       .  A
C544        H549   1.083       .  S
C545        C546   1.412       .  A
C546        F547   1.358       .  S
C551        C552   1.403       .  A
C551        C556   1.396       .  A
C551        H558   1.084       .  S
C552        C553   1.402       .  A
C553        C554   1.393       .  A
C553        F560   1.357       .  S
C554        C555   1.401       .  A
C554        H559   1.083       .  S
C555        C556   1.404       .  A
C556        F557   1.358       .  S
C561        C562   1.403       .  A
C561        C566   1.395       .  A
C561        H568   1.083       .  S
C562        C563   1.408       .  A
C563        C564   1.393       .  A
C563        F570   1.358       .  S
C564        C565   1.399       .  A
C564        H569   1.083       .  S
C565        C566   1.404       .  A
C566        F567   1.358       .  S
C571        C572   1.409       .  A
C571        C576   1.402       .  A
C571        H578   1.083       .  S
C572        C573   1.410       .  A
C573        C574   1.400       .  A
C573        F580   1.357       .  S
C574        C575   1.404       .  A
C574        H579   1.083       .  S
C575        C576   1.406       .  A
C576        F577   1.358       .  S
C581        C582   1.404       .  A
C581        C586   1.395       .  A
C581        H588   1.083       .  S
C582        C583   1.411       .  A
C583        C584   1.402       .  A
C583        F590   1.358       .  S
C584        C585   1.407       .  A
C584        H589   1.083       .  S
C585        C586   1.410       .  A
C586        F587   1.357       .  S
C591        C592   1.405       .  A
C591        C596   1.394       .  A
C591        H598   1.083       .  S
C592        C593   1.408       .  A
C593        C594   1.397       .  A
C593        F600   1.357       .  S
C594        C595   1.405       .  A
C594        H599   1.083       .  S
C595        C596   1.409       .  A
C596        F597   1.358       .  S
C601        C602   1.403       .  A
C601        C606   1.395       .  A
C601        H608   1.084       .  S
C602        C603   1.402       .  A
C603        C604   1.393       .  A
C603        F610   1.357       .  S
C604        C605   1.406       .  A
C604        H609   1.083       .  S
C605        C606   1.407       .  A
C606        F607   1.358       .  S
C611        C612   1.409       .  A
C611        C616   1.400       .  A
C611        H618   1.083       .  S
C612        C613   1.408       .  A
C613        C614   1.399       .  A
C613        F620   1.357       .  S
C614        C615   1.406       .  A
C614        H619   1.083       .  S
C615        C616   1.403       .  A
C616        F617   1.357       .  S
C621        C622   1.408       .  A
C621        C626   1.403       .  A
C621        H628   1.083       .  S
C622        C623   1.409       .  A
C623        C624   1.399       .  A
C623        F630   1.357       .  S
C624        C625   1.404       .  A
C624        H629   1.083       .  S
C625        C626   1.408       .  A
C626        F627   1.358       .  S
C631        C632   1.404       .  A
C631        C636   1.394       .  A
C631        H638   1.083       .  S
C632        C633   1.404       .  A
C633        C634   1.396       .  A
C633        F640   1.358       .  S
C634        C635   1.407       .  A
C634        H639   1.083       .  S
C635        C636   1.406       .  A
C636        F637   1.358       .  S
C641        C642   1.403       .  A
C641        C646   1.394       .  A
C641        H648   1.083       .  S
C642        C643   1.407       .  A
C643        C644   1.397       .  A
C643        F650   1.358       .  S
C644        C645   1.405       .  A
C644        H649   1.083       .  S
C645        C646   1.406       .  A
C646        F647   1.358       .  S
C651        C652   1.405       .  A
C651        C656   1.389       .  A
C651        H658   1.083       .  S
C652        C653   1.408       .  A
C653        C654   1.399       .  A
C653        F660   1.358       .  S
C654        C655   1.407       .  A
C654        H659   1.083       .  S
C655        C656   1.404       .  A
C656        F657   1.357       .  S
C661        C662   1.403       .  A
C661        C666   1.398       .  A
C661        H668   1.083       .  S
C662        C663   1.404       .  A
C663        C664   1.395       .  A
C663        F670   1.357       .  S
C664        C665   1.403       .  A
C664        H669   1.083       .  S
C665        C666   1.408       .  A
C666        F667   1.358       .  S
C671        C672   1.403       .  A
C671        C676   1.400       .  A
C671        H678   1.083       .  S
C672        C673   1.405       .  A
C673        C674   1.397       .  A
C673        F680   1.357       .  S
C674        C675   1.400       .  A
C674        H679   1.083       .  S
C675        C676   1.406       .  A
C676        F677   1.358       .  S
C681        C682   1.402       .  A
C681        C686   1.393       .  A
C681        H688   1.083       .  S
C682        C683   1.411       .  A
C683        C684   1.398       .  A
C683        F690   1.358       .  S
C684        C685   1.404       .  A
C684        H689   1.083       .  S
C685        C686   1.409       .  A
C686        F687   1.358       .  S
C691        C692   1.404       .  A
C691        C696   1.394       .  A
C691        H698   1.083       .  S
C692        C693   1.406       .  A
C693        C694   1.396       .  A
C693        F700   1.358       .  S
C694        C695   1.405       .  A
C694        H699   1.083       .  S
C695        C696   1.406       .  A
C696        F697   1.358       .  S
C701        C702   1.404       .  A
C701        C706   1.390       .  A
C701        H708   1.083       .  S
C702        C703   1.407       .  A
C703        C704   1.396       .  A
C703        F710   1.358       .  S
C704        C705   1.406       .  A
C704        H709   1.083       .  S
C705        C706   1.404       .  A
C706        F707   1.358       .  S
C711        C712   1.405       .  A
C711        C716   1.395       .  A
C711        H718   1.083       .  S
C712        C713   1.407       .  A
C713        C714   1.396       .  A
C713        F720   1.357       .  S
C714        C715   1.401       .  A
C714        H719   1.083       .  S
C715        C716   1.404       .  A
C716        F717   1.357       .  S
C721        C722   1.406       .  A
C721        C726   1.397       .  A
C721        H728   1.083       .  S
C722        C723   1.409       .  A
C723        C724   1.397       .  A
C723        F730   1.358       .  S
C724        C725   1.403       .  A
C724        H729   1.084       .  S
C725        C726   1.403       .  A
C726        F727   1.357       .  S
C731        C732   1.401       .  A
C731        C736   1.396       .  A
C731        H738   1.083       .  S
C732        C733   1.404       .  A
C733        C734   1.398       .  A
C733        F740   1.357       .  S
C734        C735   1.402       .  A
C734        H739   1.083       .  S
C735        C736   1.405       .  A
C736        F737   1.358       .  S
