geometry optimzed in LAMMPS
_audit_creation_date              2020-12-01 
_audit_creation_method            'lammps2cif' 
_symmetry_space_group_name_H-M    'P1' 
_symmetry_Int_Tables_number       1 
_symmetry_cell_setting            triclinic 
loop_ 
_symmetry_equiv_pos_as_xyz 
  x,y,z 
_cell_length_a                    32.79757078 
_cell_length_b                    34.16240984890792 
_cell_length_c                    33.99824867597428 
_cell_angle_alpha                 90.55908406746921 
_cell_angle_beta                  89.73973315222453 
_cell_angle_gamma                 83.15558776238755 
loop_ 
_atom_site_label 
_atom_site_type_symbol 
_atom_site_fract_x 
_atom_site_fract_y 
_atom_site_fract_z 
_atom_site_charge 
C1          C  0.86633745  0.87855643  0.62868145    -0.02100
C2          C  0.49112780  0.54702647  0.60884344    -0.02100
C3          C  0.84738957  0.54356574  0.94447257    -0.02100
C4          C  0.52933014  0.87139583  0.95248896    -0.02100
C5          C  0.99671778  0.04400489  0.43963809    -0.02100
C6          C  0.02330550  0.35223736  0.10747424    -0.02100
C7          C  0.35125711  0.06485402  0.11739809    -0.02100
C8          C  0.35591010  0.38179230  0.42081222    -0.02100
Zr9        Zr  0.90840211  0.90798200  0.97977566     2.17500
O10         O  0.85509717  0.92357257  0.93067018    -0.50900
O11         O  0.91450550  0.83681751  0.97366487    -0.74100
O12         O  0.93581007  0.89872959  0.91367373    -0.80900
O13         O  0.82440862  0.91747048  0.05867596    -0.82700
O14         O  0.99860715  0.92092741  0.91115663    -0.78300
O15         O  0.84048022  0.89337158  0.99712056    -0.89900
O16         O  0.95194684  0.81124724  0.02541013    -0.75900
O17         O  0.97910971  0.88582954  0.98946597    -0.85400
O18         O  0.91236096  0.88721602  0.04641443    -0.85100
O19         O  0.94379796  0.96397068  0.96585592    -0.71800
O20         O  0.88102134  0.96437184  0.01851094    -0.84000
Zr21       Zr  0.99274274  0.97687356  0.08221647     2.26400
Zr22       Zr  0.01504067  0.94193980  0.97775425     2.06300
Zr23       Zr  0.88633754  0.94323849  0.08567047     2.10000
Zr24       Zr  0.98297840  0.86534446  0.05612846     1.78800
O25         O  0.82736536  0.99078226  0.10253922    -0.92800
O26         O  0.04243265  0.82589509  0.02685581    -0.40600
O27         O  0.95752213  0.92101946  0.09678623    -0.77200
O28         O  0.02055276  0.92035431  0.04454871    -0.95900
O29         O  0.98867565  0.99810465  0.01612874    -0.89200
O30         O  0.92197369  0.99898901  0.07236645    -0.92000
C31         C  0.92943978  0.80794337  0.99500761     1.01700
C32         C  0.81566857  0.90015104  0.02627653     1.14700
C33         C  0.96804323  0.90651834  0.89531481     1.05400
O34         O  0.07231382  0.89111084  0.96502045    -0.94200
O35         O  0.07468719  0.97235161  0.00268187    -0.89900
O36         O  0.06001270  0.99242570  0.06563411    -0.83100
C37         C  0.08363696  0.98862154  0.03546325     1.12100
O38         O  0.86643758  0.03050933  0.95449879    -0.96200
Zr39       Zr  0.91812366  0.01947980  0.00582217     1.88900
O40         O  0.99372985  0.04764631  0.08411595    -0.72800
O41         O  0.03941598  0.98617466  0.92947844    -0.52100
O42         O  0.94034097  0.05795896  0.95143076    -0.96700
O43         O  0.86116912  0.06525882  0.03129840    -0.54000
O44         O  0.95111799  0.07249303  0.03565225    -0.73300
C45         C  0.97704482  0.07617834  0.06325465     0.99000
O46         O  0.04051964  0.95711139  0.13515173    -0.62100
O47         O  0.86713304  0.89610384  0.13361569    -0.56900
O48         O  0.96390869  0.99470114  0.14519865    -0.93600
O49         O  0.90329839  0.96905116  0.15150023    -0.92100
O50         O  0.96340709  0.82283015  0.10834980    -0.92400
O51         O  0.03470615  0.85065065  0.10676647    -0.91200
C52         C  0.93243620  0.98773482  0.16494655     1.17900
H53         H  0.89601146  0.86596007  0.05100611     0.33800
H54         H  0.04905224  0.91315937  0.05129178     0.44700
H55         H  0.91273504  0.02081862  0.08961901     0.38200
H56         H  0.93976617  0.97169630  0.93877125     0.34700
H57         H  0.04055876  0.79877289  0.03610533     0.26500
H58         H  0.05827775  0.96900058  0.91206727     0.32400
H59         H  0.96846824  0.06326016  0.95835902     0.38300
H60         H  0.93370022  0.82148326  0.10450741     0.32800
H61         H  0.89287797  0.88736974  0.14778687     0.31600
H62         H  0.83919447  0.01489428  0.11076626     0.33300
H63         H  0.86996338  0.07361002  0.05757118     0.32300
H64         H  0.02457171  0.86732578  0.12957590     0.36300
H65         H  0.02654691  0.93856084  0.15112902     0.29000
H66         H  0.85550411  0.89951419  0.91410991     0.33200
H67         H  0.85836880  0.05936848  0.95402762     0.36100
H68         H  0.84983192  0.91224072  0.15312229     0.28700
H69         H  0.06352405  0.94021799  0.12233473     0.41600
H70         H  0.08814608  0.88921516  0.98979633     0.31600
H71         H  0.03642261  0.82478806  0.99838718     0.39300
H72         H  0.83912636  0.04859359  0.03675352     0.31100
H73         H  0.01529578  0.99475133  0.91291782     0.31200
H74         H  0.86545765  0.94337977  0.91335428     0.31400
Zr75       Zr  0.87986737  0.51666679  0.56277663     2.17500
O76         O  0.83012596  0.57484253  0.55376740    -0.50900
O77         O  0.88115390  0.51851960  0.63420090    -0.74100
O78         O  0.81169852  0.50364942  0.58181482    -0.80900
O79         O  0.96526364  0.58018816  0.53906849    -0.82700
O80         O  0.80063447  0.44429820  0.55558184    -0.78300
O81         O  0.90414806  0.58005629  0.57097404    -0.89900
O82         O  0.92478449  0.46574801  0.65356311    -0.75900
O83         O  0.88743073  0.44958109  0.58192966    -0.85400
O84         O  0.95079985  0.50151202  0.57728210    -0.85100
O85         O  0.85647667  0.48134518  0.50747639    -0.71800
O86         O  0.91537704  0.52837361  0.50301170    -0.84000
Zr87       Zr  0.97180792  0.40796700  0.48093428     2.26400
Zr88       Zr  0.86555118  0.41348414  0.52686309     2.06300
Zr89       Zr  0.98667497  0.51181170  0.51740634     2.10000
Zr90       Zr  0.95842566  0.43420285  0.59554209     1.78800
O91         O  0.00634797  0.55740106  0.46815253    -0.92800
O92         O  0.93954581  0.38119835  0.63684112    -0.40600
O93         O  0.99538263  0.44381461  0.53597214    -0.77200
O94         O  0.93688472  0.39650447  0.54124111    -0.95900
O95         O  0.90100882  0.42363077  0.46673668    -0.89200
O96         O  0.96463552  0.47550436  0.46268070    -0.92000
C97         C  0.89865705  0.49605961  0.66073636     1.01700
C98         C  0.93445201  0.59728999  0.55890525     1.14700
C99         C  0.78890868  0.47649022  0.57469817     1.05400
O100        O  0.84874484  0.36909184  0.57850445    -0.94200
O101        O  0.88565958  0.34576991  0.50315567    -0.89900
O102        O  0.94785428  0.34398119  0.47251773    -0.83100
C103        C  0.91667597  0.32784214  0.48428679     1.12100
O104        O  0.83682568  0.54232548  0.43792838    -0.96200
Zr105      Zr  0.89396006  0.49099797  0.44832826     1.88900
O106        O  0.96738206  0.40495275  0.40923684    -0.72800
O107        O  0.81060474  0.39805392  0.48352238    -0.52100
O108        O  0.84058728  0.46151981  0.41307246    -0.96700
O109        O  0.91212578  0.54557656  0.40873240    -0.54000
O110        O  0.92879177  0.46113316  0.39003261    -0.73300
C111        C  0.95238887  0.42910875  0.38278318     0.99000
O112        O  0.02544113  0.35324707  0.49218176    -0.62100
O113        O  0.04159443  0.52413988  0.56224326    -0.56900
O114        O  0.03881866  0.42188302  0.46006841    -0.93600
O115        O  0.05056713  0.48102260  0.48642067    -0.92100
O116        O  0.01516449  0.45891906  0.63011448    -0.92400
O117        O  0.01343596  0.38104477  0.60644408    -0.91200
C118        C  0.06164261  0.44913516  0.46654828     1.17900
H119        H  0.95890508  0.51803080  0.59839512     0.33800
H120        H  0.94218629  0.36899408  0.54819548     0.44700
H121        H  0.98125140  0.47979685  0.43997395     0.38200
H122        H  0.82775104  0.48993454  0.50271362     0.34700
H123        H  0.94982703  0.38703017  0.66335163     0.26500
H124        H  0.82457265  0.38915167  0.45856446     0.32400
H125        H  0.84432027  0.46842913  0.38518041     0.38300
H126        H  0.00595933  0.46206478  0.65785868     0.32800
H127        H  0.05467096  0.54560170  0.54978507     0.31600
H128        H  0.03577009  0.55934662  0.47308817     0.33300
H129        H  0.93977808  0.53652981  0.39796034     0.32300
H130        H  0.02799329  0.37748091  0.58085765     0.36300
H131        H  0.04723320  0.36480776  0.50680038     0.29000
H132        H  0.81723430  0.58051743  0.57992420     0.33200
H133        H  0.83117959  0.54174557  0.40935468     0.36100
H134        H  0.02754092  0.53663021  0.58581324     0.28700
H135        H  0.01379984  0.33649392  0.51191621     0.41600
H136        H  0.84038815  0.38648278  0.60132901     0.31600
H137        H  0.90929054  0.38628032  0.63937269     0.39300
H138        H  0.91685770  0.56635851  0.42811729     0.31100
H139        H  0.80134895  0.37390172  0.49464175     0.31200
H140        H  0.80816576  0.56592698  0.53722347     0.31400
Zr141      Zr  0.46774100  0.50276993  0.96312183     2.17500
O142        O  0.52026814  0.49256217  0.91176608    -0.50900
O143        O  0.46400958  0.57442749  0.95974041    -0.74100
O144        O  0.43921512  0.51119524  0.89795921    -0.80900
O145        O  0.55366993  0.47816524  0.03733846    -0.82700
O146        O  0.37440372  0.49352495  0.89669601    -0.78300
O147        O  0.53917177  0.50745675  0.97827844    -0.89900
O148        O  0.42666973  0.59959437  0.01246409    -0.75900
O149        O  0.39730319  0.52562585  0.97502909    -0.85400
O150        O  0.46529374  0.52309680  0.03022904    -0.85100
O151        O  0.43103244  0.44729170  0.94884220    -0.71800
O152        O  0.49226433  0.44507298  0.99980099    -0.84000
Zr153      Zr  0.38180474  0.43387642  0.06683410     2.26400
Zr154      Zr  0.36003169  0.47016016  0.96279240     2.06300
Zr155      Zr  0.48849100  0.46557343  0.06750348     2.10000
Zr156      Zr  0.39501973  0.54583734  0.04220067     1.78800
O157        O  0.53894085  0.41233358  0.08955539    -0.92800
O158        O  0.33780751  0.59079421  0.01744366    -0.40600
O159        O  0.41815238  0.48910046  0.08058288    -0.77200
O160        O  0.35601831  0.49149544  0.03039755    -0.95900
O161        O  0.38412921  0.41318033  0.00004609    -0.89200
O162        O  0.45180381  0.41036957  0.05465663    -0.92000
C163        C  0.44929714  0.60319668  0.98211835     1.01700
C164        C  0.56402329  0.49477415  0.00557440     1.14700
C165        C  0.40579582  0.50612278  0.88039726     1.05400
O166        O  0.30172414  0.51922892  0.94953030    -0.94200
O167        O  0.29802681  0.44349719  0.98750515    -0.89900
O168        O  0.31315483  0.42306557  0.04973527    -0.83100
C169        C  0.28875813  0.42834685  0.02051691     1.12100
O170        O  0.51044938  0.37010331  0.94176812    -0.96200
Zr171      Zr  0.45405242  0.39052690  0.98730349     1.88900
O172        O  0.38382771  0.36252428  0.06851383    -0.72800
O173        O  0.33979702  0.42240082  0.91518032    -0.52100
O174        O  0.43069137  0.35976291  0.92788642    -0.96700
O175        O  0.50740159  0.34276356  0.01476295    -0.54000
O176        O  0.41605480  0.33881785  0.01242603    -0.73300
C177        C  0.39515466  0.33466838  0.04380571     0.99000
O178        O  0.33376047  0.45042948  0.12132705    -0.62100
O179        O  0.51563610  0.51348376  0.11074624    -0.56900
O180        O  0.41011121  0.42087788  0.13127234    -0.93600
O181        O  0.46662181  0.45340633  0.13524665    -0.92100
O182        O  0.42177658  0.57871070  0.09874445    -0.92400
O183        O  0.34363021  0.56564709  0.09273072    -0.91200
C184        C  0.43853900  0.43489083  0.15060157     1.17900
H185        H  0.48263049  0.54349420  0.03505135     0.33800
H186        H  0.32775432  0.49958792  0.03765789     0.44700
H187        H  0.46095409  0.38860314  0.07162358     0.38200
H188        H  0.43453271  0.43972525  0.92148994     0.34700
H189        H  0.34308670  0.61720441  0.02696166     0.26500
H190        H  0.31655709  0.43676436  0.90078021     0.32400
H191        H  0.40150216  0.35684512  0.93315552     0.38300
H192        H  0.42402483  0.60594305  0.09004396     0.32800
H193        H  0.53857677  0.49823944  0.12479168     0.31600
H194        H  0.55473879  0.42445608  0.11016698     0.33300
H195        H  0.49314677  0.32681573  0.03335720     0.32300
H196        H  0.34543926  0.54307099  0.11094076     0.36300
H197        H  0.34630203  0.47001425  0.13752849     0.29000
H198        H  0.51565918  0.51573151  0.89436428     0.33200
H199        H  0.50997565  0.34146182  0.93730582     0.36100
H200        H  0.52909044  0.53104116  0.09315616     0.28700
H201        H  0.30947203  0.46601331  0.10970922     0.41600
H202        H  0.29168019  0.52881790  0.97581399     0.31600
H203        H  0.34238606  0.59148135  0.98866374     0.39300
H204        H  0.52389239  0.35851763  0.03168776     0.31100
H205        H  0.36249641  0.41855908  0.89571069     0.31200
H206        H  0.51297266  0.47008283  0.89573840     0.31400
Zr207      Zr  0.48359135  0.91979177  0.57647937     2.17500
O208        O  0.53305537  0.86236841  0.59067573    -0.50900
O209        O  0.48351889  0.92163410  0.64881059    -0.74100
O210        O  0.55462803  0.93328851  0.57804800    -0.80900
O211        O  0.40360193  0.84857192  0.55134285    -0.82700
O212        O  0.55824666  0.99692915  0.56097105    -0.78300
O213        O  0.46958084  0.85241917  0.56970039    -0.89900
O214        O  0.43113657  0.96646318  0.66943671    -0.75900
O215        O  0.47153343  0.98698440  0.59619561    -0.85400
O216        O  0.41240481  0.92989341  0.59334163    -0.85100
O217        O  0.50145086  0.95552937  0.51915626    -0.71800
O218        O  0.44645639  0.90470733  0.51832395    -0.84000
Zr219      Zr  0.38121426  0.02099834  0.49895401     2.26400
Zr220      Zr  0.48875670  0.02354446  0.53968582     2.06300
Zr221      Zr  0.37480724  0.91633475  0.53508160     2.10000
Zr222      Zr  0.40007156  0.99758011  0.61182393     1.78800
O223        O  0.35354668  0.87089839  0.48571751    -0.92800
O224        O  0.42129533  0.05053212  0.65252606    -0.40600
O225        O  0.36177394  0.98441512  0.55449771    -0.77200
O226        O  0.41737243  0.03622269  0.55726884    -0.95900
O227        O  0.45172922  0.00956038  0.48142271    -0.89200
O228        O  0.39138679  0.95360132  0.47878547    -0.92000
C229        C  0.46156549  0.94034067  0.67599527     1.01700
C230        C  0.43960216  0.83292703  0.56179147     1.14700
C231        C  0.57455559  0.96275378  0.57232426     1.06600
O232        O  0.50126354  0.06788564  0.59363884    -0.94200
O233        O  0.46469166  0.08952960  0.51419550    -0.89900
O234        O  0.39817982  0.08767620  0.49670174    -0.83100
C235        C  0.42969349  0.10588339  0.50182012     1.12100
O236        O  0.51895527  0.89022357  0.45025722    -0.96200
Zr237      Zr  0.46231072  0.94207011  0.46210036     1.88900
O238        O  0.37955852  0.02037168  0.42733064    -0.72800
O239        O  0.53966364  0.04673567  0.49599838    -0.52100
O240        O  0.51699229  0.96497792  0.42296014    -0.96700
O241        O  0.43919803  0.88779105  0.42445549    -0.54000
O242        O  0.43056506  0.97508097  0.40468712    -0.73300
C243        C  0.40066220  0.00235943  0.39934852     0.99000
O244        O  0.33203575  0.07956602  0.48908967    -0.62100
O245        O  0.32812281  0.89595261  0.58477029    -0.56900
O246        O  0.31059683  0.00865479  0.50237647    -0.93600
O247        O  0.30544390  0.94401625  0.51329443    -0.92100
O248        O  0.34462362  0.97316507  0.64866591    -0.92400
O249        O  0.34357190  0.04959422  0.62303423    -0.91200
C250        C  0.28980894  0.97944859  0.50506707     1.17900
H251        H  0.40620653  0.91292411  0.61459296     0.33800
H252        H  0.41045304  0.06351426  0.56500710     0.44700
H253        H  0.37405038  0.94856873  0.45687515     0.38200
H254        H  0.52975360  0.94869970  0.51145961     0.34700
H255        H  0.40676223  0.04854108  0.67789267     0.26500
H256        H  0.55887383  0.05868369  0.51357455     0.32400
H257        H  0.51323859  0.99400864  0.42628898     0.38300
H258        H  0.32059484  0.97683438  0.63099244     0.32800
H259        H  0.30852802  0.91974384  0.59021751     0.31600
H260        H  0.32771797  0.86265591  0.49621638     0.33300
H261        H  0.41353301  0.89910357  0.41153586     0.32300
H262        H  0.32844169  0.05146990  0.59785050     0.36300
H263        H  0.31393812  0.07310972  0.46731975     0.29000
H264        H  0.54814353  0.86930795  0.61443101     0.33200
H265        H  0.52016292  0.88616764  0.42137426     0.36100
H266        H  0.31166761  0.87784724  0.57065414     0.28700
H267        H  0.31428146  0.08226374  0.51284285     0.41600
H268        H  0.47577295  0.08649800  0.59581771     0.31600
H269        H  0.45049581  0.04205393  0.65859104     0.39300
H270        H  0.43013424  0.86984903  0.44454160     0.31100
H271        H  0.55571065  0.02247691  0.48546593     0.31200
H272        H  0.55358559  0.86025190  0.56906011     0.31400
C273        C  0.16761836  0.41421530  0.42174305     0.16400
C274        C  0.20217858  0.39165705  0.40511445    -0.32700
C275        C  0.24091785  0.40322556  0.41346087     0.20700
C276        C  0.24462916  0.43637625  0.43628519     0.02900
C277        C  0.21011961  0.45976858  0.45153574    -0.22400
C278        C  0.17161183  0.44756908  0.44432143     0.12100
S279        S  0.11874434  0.40209401  0.41983058    -0.06100
C280        C  0.10362941  0.44209436  0.45020896    -0.09500
C281        C  0.13495970  0.46401435  0.46033978    -0.26100
S282        S  0.29370110  0.44335759  0.44676299    -0.03300
C283        C  0.31040145  0.39951765  0.42220691    -0.16800
C284        C  0.27852026  0.38294553  0.40380317    -0.14800
H285        H  0.19915367  0.36505875  0.38833786     0.20600
H286        H  0.21334441  0.48512777  0.47012529     0.16600
H287        H  0.13156302  0.48932277  0.48002754     0.19100
H288        H  0.28247595  0.35609444  0.38631678     0.12500
C289        C  0.39877669  0.37933704  0.31250243     0.16400
C290        C  0.41543754  0.36871513  0.27533943    -0.32700
C291        C  0.42157573  0.39910936  0.24933838     0.20700
C292        C  0.41212982  0.43842696  0.26001042     0.02900
C293        C  0.39472703  0.44902474  0.29702766    -0.22400
C294        C  0.38796047  0.41849071  0.32282102     0.12100
S295        S  0.38963071  0.34682702  0.34826089    -0.06100
C296        C  0.37139522  0.38628126  0.37845344    -0.09500
C297        C  0.37093760  0.42258199  0.35985418    -0.26100
S298        S  0.42073012  0.47072581  0.22356521    -0.03300
C299        C  0.43642501  0.43080655  0.19349804    -0.16800
C300        C  0.43504718  0.39457911  0.21113028    -0.14800
H301        H  0.42296440  0.33804306  0.26692372     0.20600
H302        H  0.38640678  0.47966513  0.30518400     0.16600
H303        H  0.35971098  0.45070230  0.37329581     0.19100
H304        H  0.44150144  0.36641527  0.19607861     0.12500
C305        C  0.36072007  0.27261189  0.45836401     0.16400
C306        C  0.35279340  0.23577280  0.47224733    -0.32700
C307        C  0.38653024  0.20724594  0.47860594     0.20700
C308        C  0.42651030  0.21503529  0.47219589     0.02900
C309        C  0.43439684  0.25203253  0.45837253    -0.22400
C310        C  0.40053085  0.28038522  0.45130555     0.12100
S311        S  0.32407816  0.31105281  0.44856829    -0.06100
C312        C  0.36254298  0.33822330  0.43340887    -0.09500
C313        C  0.40177830  0.31768894  0.43716206    -0.26100
S314        S  0.46299988  0.17582103  0.48121061    -0.03300
C315        C  0.42378367  0.14848335  0.49287835    -0.16800
C316        C  0.38481230  0.16933110  0.49039745    -0.14800
H317        H  0.32164593  0.22943330  0.47740473     0.20600
H318        H  0.46549656  0.25827652  0.45284423     0.16600
H319        H  0.42992397  0.32986910  0.43019532     0.19100
H320        H  0.35642746  0.15712620  0.49629533     0.12500
C321        C  0.36391223  0.22997589  0.05127122     0.16400
C322        C  0.35247867  0.19216018  0.04444458    -0.32700
C323        C  0.35424990  0.16607724  0.07628485     0.20700
C324        C  0.36671478  0.17719476  0.11315604     0.02900
C325        C  0.37652552  0.21544391  0.12036842    -0.22400
C326        C  0.37487709  0.24147443  0.08861260     0.12100
S327        S  0.36786426  0.26468918  0.01594156    -0.06100
C328        C  0.38354606  0.29522755  0.05210096    -0.09500
C329        C  0.38537203  0.27916235  0.08940316    -0.26100
S330        S  0.37085262  0.14021986  0.14677087    -0.03300
C331        C  0.35489987  0.10886386  0.11115044    -0.16800
C332        C  0.34662402  0.12741706  0.07515623    -0.14800
H333        H  0.34391174  0.18303442  0.01533967     0.20600
H334        H  0.38633568  0.22413503  0.14920193     0.16600
H335        H  0.39536892  0.29377498  0.11543680     0.19100
H336        H  0.33692893  0.11279287  0.04901228     0.12500
C337        C  0.38796708  0.02443532  0.22199275     0.16400
C338        C  0.40791344  0.00368484  0.25318120    -0.32700
C339        C  0.39435240  0.01376481  0.29151009     0.20700
C340        C  0.36245898  0.04345550  0.29855870     0.02900
C341        C  0.34234189  0.06417202  0.26715516    -0.22400
C342        C  0.35575155  0.05370181  0.22862607     0.12100
S343        S  0.40058139  0.01684054  0.17376625    -0.06100
C344        C  0.36087949  0.05270146  0.16082094    -0.09500
C345        C  0.34020277  0.06997546  0.19402140    -0.26100
S346        S  0.35122718  0.05138537  0.34745812    -0.03300
C347        C  0.38981173  0.01410418  0.35844492    -0.16800
C348        C  0.41005187  0.99682720  0.32555785    -0.14800
H349        H  0.43303201  0.98065725  0.24777579     0.20600
H350        H  0.31734308  0.08732835  0.27251015     0.16600
H351        H  0.31563465  0.09404492  0.19318084     0.19100
H352        H  0.43513506  0.97317795  0.32647016     0.12500
C353        C  0.19378321  0.01741155  0.04061648     0.16400
C354        C  0.23589553  0.02038562  0.03643541    -0.32700
C355        C  0.25566379  0.03789163  0.06749617     0.20700
C356        C  0.23451268  0.05256420  0.10073108     0.02900
C357        C  0.19231666  0.05040320  0.10459868    -0.22400
C358        C  0.17273022  0.03216445  0.07401877     0.12100
S359        S  0.16453926  0.99416687  0.00807861    -0.06100
C360        C  0.12375054  0.00384587  0.04029335    -0.09500
C361        C  0.13268725  0.02484215  0.07379885    -0.26100
S362        S  0.26446701  0.07139665  0.13541737    -0.03300
C363        C  0.30706981  0.05776788  0.10597751    -0.16800
C364        C  0.29666183  0.04159400  0.06984326    -0.14800
H365        H  0.25279624  0.00844011  0.01072551     0.20600
H366        H  0.17570617  0.06137142  0.13082871     0.16600
H367        H  0.11127860  0.03317096  0.09764344     0.19100
H368        H  0.31789447  0.03270874  0.04606528     0.12500
C369        C  0.98366695  0.42106465  0.27342491     0.16400
C370        C  0.99537699  0.42791943  0.23454100    -0.32700
C371        C  0.00168388  0.39540352  0.20869412     0.20700
C372        C  0.99612454  0.35787753  0.22087350     0.02900
C373        C  0.98562731  0.35078753  0.26006102    -0.22400
C374        C  0.97976635  0.38321314  0.28606724     0.12100
S375        S  0.97254324  0.45677558  0.30872419    -0.06100
C376        C  0.96378074  0.42025130  0.34128548    -0.09500
C377        C  0.96903923  0.38247481  0.32520137    -0.26100
S378        S  0.00212587  0.32308462  0.18424123    -0.03300
C379        C  0.01401941  0.35900921  0.15180942    -0.16800
C380        C  0.01235708  0.39618765  0.16961565    -0.14800
H381        H  0.99884300  0.45740205  0.22470892     0.20600
H382        H  0.98162341  0.32137027  0.26971618     0.16600
H383        H  0.96451338  0.35601538  0.34111754     0.19100
H384        H  0.01794140  0.42270927  0.15431613     0.12500
C385        C  0.13628383  0.37626815  0.09485566     0.16400
C386        C  0.17417441  0.39034650  0.09984582    -0.32700
C387        C  0.19653927  0.39736339  0.06602600     0.20700
C388        C  0.18240020  0.39046046  0.02857470     0.02900
C389        C  0.14472386  0.37514490  0.02357103    -0.22400
C390        C  0.12207755  0.36827271  0.05769564     0.12100
S391        S  0.10291904  0.37025730  0.13225916    -0.06100
C392        C  0.06797860  0.35809523  0.09768921    -0.09500
C393        C  0.08369186  0.35608758  0.05930398    -0.26100
S394        S  0.21465285  0.40249422  0.99160414    -0.03300
C395        C  0.24751510  0.41615419  0.02743869    -0.16800
C396        C  0.23345107  0.41183408  0.06551767    -0.14800
H397        H  0.18527437  0.39666870  0.12890579     0.20600
H398        H  0.13312539  0.36975089  0.99449774     0.16600
H399        H  0.06637912  0.34920611  0.03361070     0.19100
H400        H  0.24970616  0.41875312  0.09188425     0.12500
C401        C  0.99676410  0.25035906  0.06693503     0.16400
C402        C  0.97786062  0.22007751  0.04934967    -0.32700
C403        C  0.98882069  0.18170232  0.06280289     0.20700
C404        C  0.01804932  0.17353696  0.09184554     0.02900
C405        C  0.03776756  0.20385584  0.10878726    -0.22400
C406        C  0.02606001  0.24251297  0.09586847     0.12100
S407        S  0.98465378  0.29903923  0.05719338    -0.06100
C408        C  0.01766357  0.30998373  0.09428370    -0.09500
C409        C  0.03922127  0.27638669  0.11061310    -0.26100
S410        S  0.02573118  0.12497573  0.10486155    -0.03300
C411        C  0.98892437  0.11583335  0.07091905    -0.16800
C412        C  0.97217022  0.14882827  0.05062775    -0.14800
H413        H  0.95457991  0.22633748  0.02705036     0.20600
H414        H  0.06021004  0.19777059  0.13186357     0.16600
H415        H  0.06194600  0.27687747  0.13355996     0.19100
H416        H  0.94874247  0.14885612  0.02827206     0.12500
C417        C  0.96881130  0.15224671  0.48045011     0.16400
C418        C  0.96480204  0.18708470  0.50303613    -0.32700
C419        C  0.94370356  0.22105136  0.48638039     0.20700
C420        C  0.92680244  0.22031353  0.44910724     0.02900
C421        C  0.93038148  0.18526169  0.42678076    -0.22400
C422        C  0.95216497  0.15144249  0.44321155     0.12100
S423        S  0.99395981  0.10821913  0.49492773    -0.06100
C424        C  0.98416652  0.08821904  0.44924205    -0.09500
C425        C  0.96007652  0.11501190  0.42554762    -0.26100
S426        S  0.90488671  0.26536626  0.43316812    -0.03300
C427        C  0.91842912  0.28519869  0.47728657    -0.16800
C428        C  0.93892034  0.25821048  0.50267519    -0.14800
H429        H  0.97828900  0.18788250  0.53200422     0.20600
H430        H  0.91772491  0.18462606  0.39745119     0.16600
H431        H  0.94772183  0.10862398  0.39714362     0.19100
H432        H  0.95145245  0.26580651  0.53077896     0.12500
C433        C  0.11142881  0.99616522  0.44995870     0.16400
C434        C  0.14715241  0.96971145  0.45640236    -0.32700
C435        C  0.18125050  0.98483223  0.47334262     0.20700
C436        C  0.17966618  0.02460751  0.48259987     0.02900
C437        C  0.14442563  0.05093376  0.47554272    -0.22400
C438        C  0.11033621  0.03575565  0.45936821     0.12100
S439        S  0.06567888  0.98374001  0.43279736    -0.06100
C440        C  0.04369661  0.03202070  0.44144165    -0.09500
C441        C  0.07251601  0.05656673  0.45317947    -0.26100
S442        S  0.22359119  0.03792486  0.50217053    -0.03300
C443        C  0.24528117  0.98946567  0.49780392    -0.16800
C444        C  0.21898511  0.96426168  0.48225599    -0.14800
H445        H  0.14802458  0.93866469  0.44928752     0.20600
H446        H  0.14335135  0.08190754  0.48313376     0.16600
H447        H  0.06636818  0.08786866  0.45873525     0.19100
H448        H  0.22748478  0.93316732  0.47630056     0.12500
C449        C  0.95330639  0.00517962  0.34063728     0.16400
C450        C  0.93375816  0.98542918  0.31094954    -0.32700
C451        C  0.93555455  0.99955011  0.27235799     0.20700
C452        C  0.95529131  0.03231564  0.26425637     0.02900
C453        C  0.97499568  0.05171618  0.29379278    -0.22400
C454        C  0.97410074  0.03700337  0.33197676     0.12100
S455        S  0.95464389  0.99312058  0.38916348    -0.06100
C456        C  0.98274206  0.03226514  0.39842251    -0.09500
C457        C  0.99252139  0.05135508  0.36434086    -0.26100
S458        S  0.95686435  0.04369908  0.21587894    -0.03300
C459        C  0.93188666  0.00310348  0.20563902    -0.16800
C460        C  0.92166441  0.98265516  0.23866128    -0.14800
H461        H  0.91849515  0.95983516  0.31753864     0.20600
H462        H  0.99119479  0.07669149  0.28708298     0.16600
H463        H  0.01067697  0.07582705  0.36363632     0.19100
H464        H  0.90802250  0.95531830  0.23784394     0.12500
C465        C  0.44615839  0.93013818  0.02147372     0.16400
C466        C  0.41610129  0.94182440  0.04989609    -0.32700
C467        C  0.40955657  0.98186523  0.06023471     0.20700
C468        C  0.43172990  0.00929570  0.04314821     0.02900
C469        C  0.46180867  0.99760354  0.01444820    -0.22400
C470        C  0.46842263  0.95734824  0.00413207     0.12100
S471        S  0.45951498  0.88271570  0.00606421    -0.06100
C472        C  0.49736690  0.89882119  0.97675633    -0.09500
C473        C  0.49700061  0.93982422  0.97792732    -0.26100
S474        S  0.41849838  0.05649720  0.06007960    -0.03300
C475        C  0.38182240  0.03923674  0.09019264    -0.16800
C476        C  0.38145562  0.99856021  0.08702361    -0.14800
H477        H  0.39871632  0.92055709  0.06359287     0.20600
H478        H  0.47942734  0.01881578  0.00097998     0.16600
H479        H  0.51793792  0.95572892  0.96141744     0.19100
H480        H  0.36074992  0.98213720  0.10324538     0.12500
C481        C  0.50926809  0.76491513  0.98389055     0.16400
C482        C  0.50227942  0.73142748  0.00530349    -0.32700
C483        C  0.48493155  0.70127721  0.98544923     0.20700
C484        C  0.47591327  0.70378472  0.94568928     0.02900
C485        C  0.48228134  0.73767955  0.92438916    -0.22400
C486        C  0.49877101  0.76833119  0.94458731     0.12100
S487        S  0.52929571  0.80482933  0.00299851    -0.06100
C488        C  0.52169399  0.82804832  0.95805801    -0.09500
C489        C  0.50565092  0.80430394  0.92962273    -0.26100
S490        S  0.45712603  0.66283864  0.92673810    -0.03300
C491        C  0.46022601  0.64286931  0.97319952    -0.16800
C492        C  0.47536238  0.66675006  0.00148211    -0.14800
H493        H  0.50975522  0.72910946  0.03624716     0.20600
H494        H  0.47452130  0.74014334  0.89351760     0.16600
H495        H  0.49794311  0.81312490  0.89983652     0.19100
H496        H  0.48005151  0.65878270  0.03202660     0.12500
C497        C  0.63285073  0.89215715  0.00403994     0.16400
C498        C  0.66300182  0.90695803  0.02727097    -0.32700
C499        C  0.70425773  0.89271415  0.01978178     0.20700
C500        C  0.71472495  0.86442749  0.99079038     0.02900
C501        C  0.68440665  0.84924721  0.96790983    -0.22400
C502        C  0.64315848  0.86415942  0.97492596     0.12100
S503        S  0.58165469  0.90675283  0.00786785    -0.06100
C504        C  0.57288214  0.87616355  0.96830030    -0.09500
C505        C  0.60917749  0.85445097  0.95481015    -0.26100
S506        S  0.76639688  0.85311814  0.98413718    -0.03300
C507        C  0.77432484  0.88744639  0.02023471    -0.16800
C508        C  0.73826759  0.90569660  0.03717517    -0.14800
H509        H  0.65467204  0.92938677  0.04955325     0.20600
H510        H  0.69272700  0.82766074  0.94483542     0.16600
H511        H  0.61077428  0.83226983  0.93176966     0.19100
H512        H  0.73689837  0.92903719  0.05908577     0.12500
C513        C  0.52839469  0.88806232  0.83728184     0.16400
C514        C  0.53552883  0.88684641  0.79634608    -0.32700
C515        C  0.50554531  0.90722424  0.77209272     0.20700
C516        C  0.47043299  0.92807370  0.78813654     0.02900
C517        C  0.46341641  0.92920993  0.82879655    -0.22400
C518        C  0.49308695  0.90866206  0.85282505     0.12100
S519        S  0.55970569  0.86441575  0.87202656    -0.06100
C520        C  0.52509278  0.88277113  0.90845192    -0.09500
C521        C  0.49075169  0.90551290  0.89286418    -0.26100
S522        S  0.43758135  0.95080994  0.75453546    -0.03300
C523        C  0.47093860  0.93184862  0.71786294    -0.16800
C524        C  0.50601468  0.90919083  0.73155324    -0.14800
H525        H  0.56293770  0.87042330  0.78395758     0.20600
H526        H  0.43574851  0.94520167  0.84118522     0.16600
H527        H  0.46423068  0.91831813  0.90955702     0.19100
H528        H  0.53044988  0.89505889  0.71295558     0.12500
C529        C  0.93384903  0.48226347  0.00458936     0.16400
C530        C  0.97140342  0.46510425  0.01944684    -0.32700
C531        C  0.97058127  0.43427214  0.04616416     0.20700
C532        C  0.93410694  0.42152588  0.05819444     0.02900
C533        C  0.89637997  0.43923669  0.04386711    -0.22400
C534        C  0.89722074  0.46971839  0.01656765     0.12100
S535        S  0.92865145  0.51855704  0.97052317    -0.06100
C536        C  0.87602033  0.51655248  0.97112719    -0.09500
C537        C  0.86398058  0.48969662  0.99827142    -0.26100
S538        S  0.94016127  0.38321750  0.09027696    -0.03300
C539        C  0.99298081  0.38258922  0.08581717    -0.16800
C540        C  0.00406708  0.41303618  0.06246334    -0.14800
H541        H  0.00010380  0.47475485  0.00990780     0.20600
H542        H  0.86773400  0.42919103  0.05296803     0.16600
H543        H  0.83283407  0.48445759  0.00464631     0.19100
H544        H  0.03489821  0.41997134  0.05728738     0.12500
C545        C  0.85902482  0.53022961  0.76383958     0.16400
C546        C  0.83882786  0.54932419  0.79650545    -0.32700
C547        C  0.85019042  0.53522687  0.83404684     0.20700
C548        C  0.87995958  0.50335143  0.83868254     0.02900
C549        C  0.89959783  0.48379964  0.80611439    -0.22400
C550        C  0.88861805  0.49814700  0.76868602     0.12100
S551        S  0.85085715  0.54356851  0.71591877    -0.06100
C552        C  0.88762053  0.50538587  0.70225358    -0.09500
C553        C  0.90504399  0.48372276  0.73354747    -0.26100
S554        S  0.89077099  0.49186572  0.88632918    -0.03300
C555        C  0.85598534  0.53166975  0.90107102    -0.16800
C556        C  0.83553662  0.55083532  0.86952614    -0.14800
H557        H  0.81586530  0.57452521  0.79285252     0.20600
H558        H  0.92301226  0.45896581  0.80983158     0.16600
H559        H  0.92854287  0.45872083  0.73076436     0.19100
H560        H  0.81210371  0.57585559  0.87250175     0.12500
C561        C  0.67733084  0.49092507  0.97607787     0.16400
C562        C  0.71743136  0.48035248  0.96176952    -0.32700
C563        C  0.74338904  0.51012032  0.95922972     0.20700
C564        C  0.72991153  0.54861381  0.97027990     0.02900
C565        C  0.68948808  0.55945975  0.98336799    -0.22400
C566        C  0.66360810  0.52972744  0.98612980     0.12100
S567        S  0.64148392  0.45904956  0.98261540    -0.06100
C568        C  0.60764693  0.49844023  0.99866557    -0.09500
C569        C  0.62340049  0.53431995  0.99859402    -0.26100
S570        S  0.76673056  0.57971369  0.96782151    -0.03300
C571        C  0.80170822  0.54033292  0.95264913    -0.16800
C572        C  0.78395682  0.50547613  0.94783801    -0.14800
H573        H  0.72816663  0.45012156  0.95371195     0.20600
H574        H  0.67893298  0.58962574  0.99181752     0.16600
H575        H  0.60618392  0.56227108  0.00678718     0.19100
H576        H  0.80053145  0.47771621  0.93813436     0.12500
C577        C  0.87390041  0.64487678  0.98627138     0.16400
C578        C  0.88417571  0.67552875  0.01066483    -0.32700
C579        C  0.89746410  0.70851620  0.99254152     0.20700
C580        C  0.89921512  0.71134075  0.95191771     0.02900
C581        C  0.88956118  0.68037540  0.92760290    -0.22400
C582        C  0.87742497  0.64688611  0.94579097     0.12100
S583        S  0.85781163  0.60229153  0.00250184    -0.06100
C584        C  0.85704252  0.58569182  0.95408286    -0.09500
C585        C  0.86856741  0.61306327  0.92722468    -0.26100
S586        S  0.91374646  0.75472410  0.93555962    -0.03300
C587        C  0.91901446  0.76862321  0.98394353    -0.16800
C588        C  0.90942063  0.74109839  0.01113708    -0.14800
H589        H  0.88221006  0.67359947  0.04237766     0.20600
H590        H  0.89165568  0.68221553  0.89589280     0.16600
H591        H  0.87141035  0.60877837  0.89579653     0.19100
H592        H  0.90994200  0.74526132  0.04274680     0.12500
C593        C  0.39845404  0.43546078  0.51064451     0.16400
C594        C  0.40411218  0.45128157  0.54803099    -0.32700
C595        C  0.42888931  0.48177742  0.55087345     0.20700
C596        C  0.44668743  0.49628013  0.51791073     0.02900
C597        C  0.44118172  0.48031559  0.48046080    -0.22400
C598        C  0.41683033  0.44936740  0.47770270     0.12100
S599        S  0.36853664  0.39931566  0.50115139    -0.06100
C600        C  0.37926120  0.40369401  0.45146780    -0.09500
C601        C  0.40715032  0.43048512  0.44388221    -0.26100
S602        S  0.47616865  0.53280522  0.52775007    -0.03300
C603        C  0.46758257  0.52611181  0.57759197    -0.16800
C604        C  0.43969378  0.49938689  0.58494125    -0.14800
H605        H  0.39003284  0.44011151  0.57382649     0.20600
H606        H  0.45535858  0.49140908  0.45467783     0.16600
H607        H  0.41902003  0.43723376  0.41541237     0.19100
H608        H  0.42862920  0.49188379  0.61351932     0.12500
C609        C  0.60376876  0.49723563  0.58826735     0.16400
C610        C  0.63862064  0.47503616  0.57234152    -0.32700
C611        C  0.67694088  0.48344835  0.58545192     0.20700
C612        C  0.68043339  0.51236651  0.61373591     0.02900
C613        C  0.64524221  0.53410737  0.63039569    -0.22400
C614        C  0.60666887  0.52614099  0.61656485     0.12100
S615        S  0.55530578  0.49258888  0.57396473    -0.06100
C616        C  0.53733714  0.53183567  0.60472565    -0.09500
C617        C  0.56864231  0.54546825  0.62689361    -0.26100
S618        S  0.73000912  0.52011805  0.62306831    -0.03300
C619        C  0.74591356  0.48413080  0.58834314    -0.16800
C620        C  0.71425623  0.46683739  0.57115527    -0.14800
H621        H  0.63597232  0.45297462  0.54969498     0.20600
H622        H  0.64787629  0.55711087  0.65204457     0.16600
H623        H  0.56385696  0.56895006  0.64864165     0.19100
H624        H  0.71816665  0.44484263  0.54784909     0.12500
C625        C  0.46174529  0.50777528  0.71221629     0.16400
C626        C  0.45420968  0.48458802  0.74465462    -0.32700
C627        C  0.43288543  0.50335577  0.77684886     0.20700
C628        C  0.41993494  0.54349246  0.77698033     0.02900
C629        C  0.42763826  0.56667742  0.74456227    -0.22400
C630        C  0.44873212  0.54779891  0.71224828     0.12100
S631        S  0.48680427  0.49066753  0.67021891    -0.06100
C632        C  0.47801292  0.53776895  0.65106185    -0.09500
C633        C  0.45877204  0.56525541  0.67798961    -0.26100
S634        S  0.39766874  0.56113730  0.82023770    -0.03300
C635        C  0.40551355  0.51387939  0.83812749    -0.16800
C636        C  0.42457364  0.48624360  0.81181726    -0.14800
H637        H  0.46476245  0.45332702  0.74491125     0.20600
H638        H  0.41796712  0.59811555  0.74466004     0.16600
H639        H  0.45196649  0.59655701  0.67321905     0.19100
H640        H  0.43456780  0.45579190  0.81898940     0.12500
C641        C  0.44641818  0.65602994  0.58659485     0.16400
C642        C  0.42083040  0.69147229  0.58075276    -0.32700
C643        C  0.43970393  0.72552404  0.57371564     0.20700
C644        C  0.48214290  0.72396883  0.57230309     0.02900
C645        C  0.50759489  0.68845251  0.57738073    -0.22400
C646        C  0.48875218  0.65459055  0.58480924     0.12100
S647        S  0.42968798  0.61203992  0.59701047    -0.06100
C648        C  0.48055081  0.59111314  0.60008722    -0.09500
C649        C  0.50847895  0.61759810  0.59182182    -0.26100
S650        S  0.49950019  0.76834450  0.56572510    -0.03300
C651        C  0.44908819  0.78969825  0.56468075    -0.16800
C652        C  0.42039011  0.76326239  0.56892583    -0.14800
H653        H  0.38773315  0.69257177  0.58238357     0.20600
H654        H  0.54071646  0.68745188  0.57647143     0.16600
H655        H  0.54147398  0.61073550  0.59085795     0.19100
H656        H  0.38745261  0.77132590  0.56976249     0.12500
C657        C  0.92498190  0.99585420  0.51178599     0.16400
C658        C  0.89142939  0.98252022  0.53071652    -0.32700
C659        C  0.89968836  0.95244740  0.55822741     0.20700
C660        C  0.93942303  0.93702796  0.56725846     0.02900
C661        C  0.97303717  0.95121076  0.54918099    -0.22400
C662        C  0.96475729  0.98064505  0.52096338     0.12100
S663        S  0.92141184  0.02978251  0.47537680    -0.06100
C664        C  0.97444682  0.02233735  0.47087340    -0.09500
C665        C  0.99319853  0.99647275  0.49863510    -0.26100
S666        S  0.94271006  0.89994226  0.60052124    -0.03300
C667        C  0.88948437  0.90398324  0.60146490    -0.16800
C668        C  0.87110509  0.93438911  0.57810807    -0.14800
H669        H  0.86024379  0.99416667  0.52342445     0.20600
H670        H  0.00419879  0.93901455  0.55590654     0.16600
H671        H  0.02582652  0.98902422  0.50262225     0.19100
H672        H  0.83856239  0.94353654  0.57551969     0.12500
C673        C  0.87890058  0.76371479  0.61578773     0.16400
C674        C  0.87754095  0.72332387  0.62071950    -0.32700
C675        C  0.90318775  0.69725902  0.59683990     0.20700
C676        C  0.92941119  0.71047839  0.56922622     0.02900
C677        C  0.93060542  0.75116898  0.56409905    -0.22400
C678        C  0.90458907  0.77739127  0.58802732     0.12100
S679        S  0.85055177  0.79971030  0.64257864    -0.06100
C680        C  0.87447720  0.83446393  0.61740813    -0.09500
C681        C  0.90137885  0.81786047  0.58799522    -0.26100
S682        S  0.95703914  0.67325282  0.54253620    -0.03300
C683        C  0.93200804  0.63988219  0.56842062    -0.16800
C684        C  0.90465832  0.65715988  0.59659254    -0.14800
H685        H  0.85717503  0.71261933  0.64221059     0.20600
H686        H  0.95073549  0.76190494  0.54241284     0.16600
H687        H  0.91839499  0.83399077  0.56776981     0.19100
H688        H  0.88560975  0.64118410  0.61522218     0.12500
C689        C  0.90837268  0.91383481  0.72930333     0.16400
C690        C  0.91874336  0.93553289  0.76220234    -0.32700
C691        C  0.94083164  0.91496295  0.79234055     0.20700
C692        C  0.95277688  0.87469895  0.78957904     0.02900
C693        C  0.94327256  0.85322752  0.75616264    -0.22400
C694        C  0.92028938  0.87369267  0.72645141     0.12100
S695        S  0.88015268  0.93291236  0.69051598    -0.06100
C696        C  0.88286611  0.88588906  0.67015712    -0.09500
C697        C  0.90633136  0.85763331  0.69272324    -0.26100
S698        S  0.97466979  0.85441801  0.83138539    -0.03300
C699        C  0.96775429  0.90067478  0.85263110    -0.16800
C700        C  0.94975576  0.93005572  0.82833342    -0.14800
H701        H  0.90874614  0.96682667  0.76483411     0.20600
H702        H  0.95184227  0.82166022  0.75417133     0.16600
H703        H  0.91402606  0.82691837  0.68482117     0.19100
H704        H  0.94042049  0.96019859  0.83773216     0.12500
C705        C  0.74855489  0.91923022  0.63105610     0.16400
C706        C  0.70932749  0.93896396  0.63955449    -0.32700
C707        C  0.67990110  0.94152393  0.60942106     0.20700
C708        C  0.68919844  0.92497234  0.57257918     0.02900
C709        C  0.72827813  0.90505373  0.56424076    -0.22400
C710        C  0.75764805  0.90262900  0.59430323     0.12100
S711        S  0.78898571  0.91410665  0.66290030    -0.06100
C712        C  0.81949304  0.89057825  0.62588817    -0.09500
C713        C  0.79764508  0.88551318  0.59143552    -0.26100
S714        S  0.64909403  0.92990140  0.54040774    -0.03300
C715        C  0.61943523  0.95494737  0.57664146    -0.16800
C716        C  0.63972144  0.95864521  0.61200266    -0.14800
H717        H  0.70213241  0.95191035  0.66832052     0.20600
H718        H  0.73550300  0.89204710  0.53550090     0.16600
H719        H  0.81116247  0.87174111  0.56485233     0.19100
H720        H  0.62539727  0.97170509  0.63854608     0.12500
loop_ 
_geom_bond_atom_site_label_1 
_geom_bond_atom_site_label_2 
_geom_bond_distance 
_geom_bond_site_symmetry_2 
_ccdc_geom_bond_type 
C1          C667   1.534       .  S
C1          C680   1.542       .  S
C1          C696   1.542       .  S
C1          C712   1.546       .  S
C2          C603   1.536       .  S
C2          C616   1.548       .  S
C2          C632   1.543       .  S
C2          C648   1.537       .  S
C3          C536   1.540       .  S
C3          C555   1.542       .  S
C3          C571   1.540       .  S
C3          C584   1.542       .  S
C4          C472   1.549       .  S
C4          C488   1.544       .  S
C4          C504   1.555       .  S
C4          C520   1.553       .  S
C5          C424   1.549       .  S
C5          C440   1.548   1_655  S
C5          C456   1.541       .  S
C5          C664   1.532       .  S
C6          C379   1.546       .  S
C6          C392   1.538       .  S
C6          C408   1.540       .  S
C6          C539   1.543   1_455  S
C7          C331   1.539       .  S
C7          C344   1.561       .  S
C7          C363   1.548       .  S
C7          C475   1.547       .  S
C8          C283   1.543       .  S
C8          C296   1.540       .  S
C8          C312   1.543       .  S
C8          C600   1.537       .  S
Zr9          O10   2.439       .  S
Zr9          O11   2.422       .  S
Zr9          O12   2.420       .  S
Zr9          O15   2.412       .  S
Zr9          O17   2.378       .  S
Zr9          O18   2.380   1_556  S
Zr9          O19   2.403       .  S
Zr9          O20   2.404   1_556  S
O10          H66   0.990       .  S
O10          H74   0.990       .  S
O11          C31   1.281       .  A
O12          C33   1.282       .  A
O13         Zr23   2.484       .  S
O13          C32   1.295       .  A
O14         Zr22   2.450   1_655  S
O14          C33   1.286       .  A
O15          C32   1.281   1_556  A
O16         Zr24   2.442       .  S
O16          C31   1.285   1_554  A
O17         Zr22   2.402   1_655  S
O17         Zr24   2.378   1_556  S
O18         Zr23   2.392       .  S
O18         Zr24   2.373       .  S
O18          H53   0.966       .  S
O19         Zr22   2.405   1_655  S
O19         Zr39   2.390   1_566  S
O19          H56   0.966       .  S
O20         Zr23   2.402       .  S
O20         Zr39   2.402   1_565  S
Zr21         O46   2.439   1_655  S
Zr21         O40   2.422   1_565  S
Zr21         O48   2.381       .  S
Zr21         O36   2.396   1_655  S
Zr21         O27   2.400       .  S
Zr21         O28   2.392   1_655  S
Zr21         O29   2.367       .  S
Zr21         O30   2.380       .  S
Zr22         O41   2.437       .  S
Zr22         O34   2.435       .  S
Zr22         O35   2.471   1_556  S
Zr22         O28   2.395   1_556  S
Zr22         O29   2.383   1_456  S
Zr23         O25   2.435       .  S
Zr23         O47   2.435       .  S
Zr23         O49   2.487       .  S
Zr23         O27   2.400       .  S
Zr23         O30   2.396       .  S
Zr24         O50   2.436       .  S
Zr24         O51   2.436   1_655  S
Zr24         O26   2.437   1_655  S
Zr24         O27   2.405       .  S
Zr24         O28   2.402   1_655  S
O25          H62   0.990   1_565  S
O26          H57   0.990       .  S
O26          H71   0.990   1_554  S
O28          H54   0.967       .  S
O29         Zr39   2.371   1_565  S
O30         Zr39   2.374   1_565  S
O30          H55   0.963   1_565  S
C31         C587   1.471       .  S
C32         C507   1.487       .  S
C33         C699   1.463       .  S
O34          H70   0.990       .  S
O35          C37   1.291       .  A
O36          C37   1.279       .  A
C37         C360   1.480   1_565  S
O38         Zr39   2.439   1_556  S
O38          H67   0.990       .  S
Zr39         O42   2.438   1_554  S
Zr39         O43   2.439       .  S
Zr39         O44   2.433       .  S
O40          C45   1.282       .  A
O41          H58   0.990       .  S
O41          H73   0.990       .  S
O42          H59   0.990       .  S
O43          H63   0.990       .  S
O43          H72   0.990       .  S
O44          C45   1.285       .  A
C45         C411   1.475       .  S
O46          H65   0.990       .  S
O46          H69   0.990       .  S
O47          H61   0.990       .  S
O47          H68   0.990       .  S
O48          C52   1.276       .  A
O49          C52   1.294       .  A
O50          H60   0.990       .  S
O51          H64   0.990       .  S
C52         C459   1.474   1_565  S
Zr75         O76   2.439       .  S
Zr75         O77   2.429       .  S
Zr75         O78   2.418       .  S
Zr75         O81   2.409       .  S
Zr75         O83   2.373       .  S
Zr75         O84   2.377       .  S
Zr75         O85   2.402       .  S
Zr75         O86   2.398       .  S
O76         H132   0.990       .  S
O76         H140   0.990       .  S
O77          C97   1.283       .  A
O78          C99   1.281       .  A
O79         Zr89   2.462       .  S
O79          C98   1.289       .  A
O80         Zr88   2.454       .  S
O80          C99   1.289       .  A
O81          C98   1.282       .  A
O82         Zr90   2.434       .  S
O82          C97   1.284       .  A
O83         Zr88   2.391       .  S
O83         Zr90   2.374       .  S
O84         Zr89   2.396       .  S
O84         Zr90   2.372       .  S
O84         H119   0.966       .  S
O85         Zr88   2.401       .  S
O85        Zr105   2.398       .  S
O85         H122   0.968       .  S
O86         Zr89   2.393       .  S
O86        Zr105   2.400       .  S
Zr87        O112   2.444   1_655  S
Zr87        O106   2.444       .  S
Zr87        O114   2.409   1_655  S
Zr87        O102   2.424       .  S
Zr87         O93   2.407       .  S
Zr87         O94   2.402       .  S
Zr87         O95   2.373       .  S
Zr87         O96   2.380       .  S
Zr88        O107   2.436       .  S
Zr88        O100   2.435       .  S
Zr88        O101   2.456       .  S
Zr88         O94   2.396       .  S
Zr88         O95   2.396       .  S
Zr89         O91   2.434   1_655  S
Zr89        O113   2.437   1_655  S
Zr89        O115   2.458   1_655  S
Zr89         O93   2.398       .  S
Zr89         O96   2.388       .  S
Zr90        O116   2.436   1_655  S
Zr90        O117   2.435   1_655  S
Zr90         O92   2.438       .  S
Zr90         O93   2.401       .  S
Zr90         O94   2.398       .  S
O91         H128   0.990       .  S
O92         H123   0.990       .  S
O92         H137   0.990       .  S
O94         H120   0.967       .  S
O95        Zr105   2.376       .  S
O96        Zr105   2.369       .  S
O96         H121   0.965       .  S
C97         C552   1.478       .  S
C98         C683   1.480       .  S
C99         C619   1.475       .  S
O100        H136   0.990       .  S
O101        C103   1.288       .  A
O102        C103   1.282       .  A
C103        C427   1.468       .  S
O104       Zr105   2.438       .  S
O104        H133   0.990       .  S
Zr105       O108   2.435       .  S
Zr105       O109   2.439       .  S
Zr105       O110   2.436       .  S
O106        C111   1.286       .  A
O107        H124   0.990       .  S
O107        H139   0.990       .  S
O108        H125   0.990       .  S
O109        H129   0.990       .  S
O109        H138   0.990       .  S
O110        C111   1.284       .  A
C111        C376   1.477       .  S
O112        H131   0.990       .  S
O112        H135   0.990       .  S
O113        H127   0.990       .  S
O113        H134   0.990       .  S
O114        C118   1.280       .  A
O115        C118   1.290       .  A
O116        H126   0.990       .  S
O117        H130   0.990       .  S
C118        C280   1.475       .  S
Zr141       O142   2.440       .  S
Zr141       O143   2.440       .  S
Zr141       O144   2.415       .  S
Zr141       O147   2.425       .  S
Zr141       O149   2.380       .  S
Zr141       O150   2.377   1_556  S
Zr141       O151   2.410       .  S
Zr141       O152   2.401       .  S
O142        H198   0.990       .  S
O142        H206   0.990       .  S
O143        C163   1.283       .  A
O144        C165   1.279       .  A
O145       Zr155   2.452       .  S
O145        C164   1.288       .  A
O146       Zr154   2.454       .  S
O146        C165   1.287       .  A
O147        C164   1.282   1_556  A
O148       Zr156   2.440       .  S
O148        C163   1.284   1_554  A
O149       Zr154   2.408       .  S
O149       Zr156   2.378   1_556  S
O150       Zr155   2.397       .  S
O150       Zr156   2.375       .  S
O150        H185   0.964       .  S
O151       Zr154   2.410       .  S
O151       Zr171   2.398       .  S
O151        H188   0.965       .  S
O152       Zr155   2.398   1_556  S
O152       Zr171   2.402       .  S
Zr153       O178   2.445       .  S
Zr153       O172   2.432       .  S
Zr153       O180   2.408       .  S
Zr153       O168   2.398       .  S
Zr153       O159   2.392       .  S
Zr153       O160   2.405       .  S
Zr153       O161   2.370       .  S
Zr153       O162   2.373       .  S
Zr154       O173   2.437       .  S
Zr154       O166   2.435       .  S
Zr154       O167   2.472       .  S
Zr154       O160   2.403   1_556  S
Zr154       O161   2.389   1_556  S
Zr155       O157   2.435       .  S
Zr155       O179   2.438       .  S
Zr155       O181   2.463       .  S
Zr155       O159   2.389       .  S
Zr155       O162   2.393       .  S
Zr156       O182   2.436       .  S
Zr156       O183   2.435       .  S
Zr156       O158   2.437       .  S
Zr156       O159   2.396       .  S
Zr156       O160   2.408       .  S
O157        H194   0.990       .  S
O158        H189   0.990       .  S
O158        H203   0.990   1_554  S
O160        H186   0.965       .  S
O161       Zr171   2.368   1_554  S
O162       Zr171   2.380   1_554  S
O162        H187   0.966       .  S
C163        C491   1.477       .  S
C164        C568   1.469   1_554  S
C165        C635   1.464       .  S
O166        H202   0.990       .  S
O167        C169   1.291   1_556  A
O168        C169   1.279       .  A
C169        C395   1.481       .  S
O170       Zr171   2.439       .  S
O170        H199   0.991       .  S
Zr171       O174   2.437       .  S
Zr171       O175   2.441   1_556  S
Zr171       O176   2.439   1_556  S
O172        C177   1.283       .  A
O173        H190   0.990       .  S
O173        H205   0.990       .  S
O174        H191   0.990       .  S
O175        H195   0.990       .  S
O175        H204   0.990       .  S
O176        C177   1.284       .  A
C177        C328   1.473       .  S
O178        H197   0.990       .  S
O178        H201   0.990       .  S
O179        H193   0.990       .  S
O179        H200   0.990       .  S
O180        C184   1.279       .  A
O181        C184   1.289       .  A
O182        H192   0.990       .  S
O183        H196   0.990       .  S
C184        C299   1.469       .  S
Zr207       O208   2.445       .  S
Zr207       O209   2.459       .  S
Zr207       O210   2.429       .  S
Zr207       O213   2.409       .  S
Zr207       O215   2.372       .  S
Zr207       O216   2.386       .  S
Zr207       O217   2.416       .  S
Zr207       O218   2.410       .  S
O208        H264   0.991       .  S
O208        H272   0.991       .  S
O209        C229   1.286       .  A
O210        C231   1.280       .  A
O211       Zr221   2.463       .  S
O211        C230   1.290       .  A
O212       Zr220   2.465   1_565  S
O212        C231   1.288       .  A
O213        C230   1.280       .  A
O214       Zr222   2.409       .  S
O214        C229   1.279       .  A
O215       Zr220   2.403   1_565  S
O215       Zr222   2.385       .  S
O216       Zr221   2.408       .  S
O216       Zr222   2.377       .  S
O216        H251   0.967       .  S
O217       Zr220   2.407   1_565  S
O217       Zr237   2.402       .  S
O217        H254   0.964       .  S
O218       Zr221   2.401       .  S
O218       Zr237   2.398       .  S
Zr219       O244   2.443       .  S
Zr219       O238   2.436       .  S
Zr219       O246   2.406       .  S
Zr219       O234   2.410       .  S
Zr219       O225   2.400   1_545  S
Zr219       O226   2.399       .  S
Zr219       O227   2.372       .  S
Zr219       O228   2.380   1_545  S
Zr220       O239   2.437       .  S
Zr220       O232   2.435       .  S
Zr220       O233   2.465       .  S
Zr220       O226   2.401       .  S
Zr220       O227   2.402       .  S
Zr221       O223   2.435       .  S
Zr221       O245   2.437       .  S
Zr221       O247   2.477       .  S
Zr221       O225   2.400       .  S
Zr221       O228   2.405       .  S
Zr222       O248   2.436       .  S
Zr222       O249   2.436   1_565  S
Zr222       O224   2.436   1_565  S
Zr222       O225   2.391       .  S
Zr222       O226   2.392   1_565  S
O223        H260   0.990       .  S
O224        H255   0.990       .  S
O224        H269   0.990       .  S
O226        H252   0.967       .  S
O227       Zr237   2.376   1_545  S
O228       Zr237   2.378       .  S
O228        H253   0.966       .  S
C229        C523   1.482       .  S
C230        C651   1.477       .  S
C231        C715   1.473       .  S
O232        H268   0.990       .  S
O233        C235   1.290       .  A
O234        C235   1.280       .  A
C235        C315   1.480       .  S
O236       Zr237   2.438       .  S
O236        H265   0.990       .  S
Zr237       O240   2.436       .  S
Zr237       O241   2.439       .  S
Zr237       O242   2.439       .  S
O238        C243   1.282       .  A
O239        H256   0.990       .  S
O239        H271   0.990       .  S
O240        H257   0.990       .  S
O241        H261   0.990       .  S
O241        H270   0.990       .  S
O242        C243   1.285   1_565  A
C243        C347   1.484       .  S
O244        H263   0.990       .  S
O244        H267   0.991       .  S
O245        H259   0.990       .  S
O245        H266   0.990       .  S
O246        C250   1.278   1_545  A
O247        C250   1.291       .  A
O248        H258   0.990       .  S
O249        H262   0.990       .  S
C250        C443   1.482       .  S
C273        S279   1.704       .  A
C273        C278   1.387       .  A
C273        C274   1.406       .  A
C274        C275   1.404       .  A
C274        H285   1.083       .  S
C275        C284   1.377       .  A
C275        C276   1.384       .  A
C276        S282   1.694       .  A
C276        C277   1.400       .  A
C277        C278   1.398       .  A
C277        H286   1.083       .  S
C278        C281   1.373       .  A
S279        C280   1.728       .  A
C280        C281   1.385       .  A
C281        H287   1.083       .  S
S282        C283   1.737       .  A
C283        C284   1.395       .  A
C284        H288   1.083       .  S
C289        S295   1.704       .  A
C289        C294   1.384       .  A
C289        C290   1.401       .  A
C290        C291   1.402       .  A
C290        H301   1.083       .  S
C291        C300   1.372       .  A
C291        C292   1.386       .  A
C292        S298   1.712       .  A
C292        C293   1.406       .  A
C293        C294   1.406       .  A
C293        H302   1.083       .  S
C294        C297   1.374       .  A
S295        C296   1.733       .  A
C296        C297   1.396       .  A
C297        H303   1.083       .  S
S298        C299   1.723       .  A
C299        C300   1.386       .  A
C300        H304   1.083       .  S
C305        S311   1.708       .  A
C305        C310   1.383       .  A
C305        C306   1.401       .  A
C306        C307   1.404       .  A
C306        H317   1.083       .  S
C307        C316   1.367       .  A
C307        C308   1.385       .  A
C308        S314   1.718       .  A
C308        C309   1.405       .  A
C309        C310   1.407       .  A
C309        H318   1.083       .  S
C310        C313   1.372       .  A
S311        C312   1.732       .  A
C312        C313   1.397       .  A
C313        H319   1.083       .  S
S314        C315   1.724       .  A
C315        C316   1.390       .  A
C316        H320   1.083       .  S
C321        S327   1.711       .  A
C321        C326   1.387       .  A
C321        C322   1.405       .  A
C322        C323   1.406       .  A
C322        H333   1.083       .  S
C323        C332   1.373       .  A
C323        C324   1.384       .  A
C324        S330   1.706       .  A
C324        C325   1.402       .  A
C325        C326   1.403       .  A
C325        H334   1.083       .  S
C326        C329   1.372       .  A
S327        C328   1.724       .  A
C328        C329   1.385       .  A
C329        H335   1.083       .  S
S330        C331   1.733       .  A
C331        C332   1.396       .  A
C332        H336   1.083       .  S
C337        S343   1.699       .  A
C337        C342   1.381       .  A
C337        C338   1.402       .  A
C338        C339   1.401       .  A
C338        H349   1.083   1_545  S
C339        C348   1.374   1_545  A
C339        C340   1.386       .  A
C340        S346   1.713       .  A
C340        C341   1.409       .  A
C341        C342   1.409       .  A
C341        H350   1.083       .  S
C342        C345   1.380       .  A
S343        C344   1.739       .  A
C344        C345   1.402       .  A
C345        H351   1.081       .  S
S346        C347   1.730       .  A
C347        C348   1.388   1_545  A
C348        H352   1.083       .  S
C353        S359   1.717   1_545  A
C353        C358   1.385       .  A
C353        C354   1.404       .  A
C354        C355   1.407       .  A
C354        H365   1.083       .  S
C355        C364   1.368       .  A
C355        C356   1.381       .  A
C356        S362   1.708       .  A
C356        C357   1.400       .  A
C357        C358   1.404       .  A
C357        H366   1.083       .  S
C358        C361   1.366       .  A
S359        C360   1.724   1_565  A
C360        C361   1.391       .  A
C361        H367   1.083       .  S
S362        C363   1.730       .  A
C363        C364   1.402       .  A
C364        H368   1.082       .  S
C369        S375   1.710       .  A
C369        C374   1.387       .  A
C369        C370   1.405       .  A
C370        C371   1.405   1_655  A
C370        H381   1.083       .  S
C371        C380   1.374       .  A
C371        C372   1.383   1_455  A
C372        S378   1.708   1_655  A
C372        C373   1.405       .  A
C373        C374   1.405       .  A
C373        H382   1.083       .  S
C374        C377   1.376       .  A
S375        C376   1.725       .  A
C376        C377   1.388       .  A
C377        H383   1.083       .  S
S378        C379   1.735       .  A
C379        C380   1.397       .  A
C380        H384   1.083       .  S
C385        S391   1.704       .  A
C385        C390   1.384       .  A
C385        C386   1.395       .  A
C386        C387   1.399       .  A
C386        H397   1.083       .  S
C387        C396   1.361       .  A
C387        C388   1.385       .  A
C388        S394   1.723   1_554  A
C388        C389   1.409       .  A
C389        C390   1.411       .  A
C389        H398   1.083   1_554  S
C390        C393   1.373       .  A
S391        C392   1.727       .  A
C392        C393   1.399       .  A
C393        H399   1.083       .  S
S394        C395   1.728   1_556  A
C395        C396   1.387       .  A
C396        H400   1.083       .  S
C401        S407   1.699       .  A
C401        C406   1.384   1_655  A
C401        C402   1.399       .  A
C402        C403   1.399       .  A
C402        H413   1.083       .  S
C403        C412   1.367       .  A
C403        C404   1.386   1_655  A
C404        S410   1.711       .  A
C404        C405   1.405       .  A
C405        C406   1.406       .  A
C405        H414   1.083       .  S
C406        C409   1.373       .  A
S407        C408   1.733   1_655  A
C408        C409   1.396       .  A
C409        H415   1.083       .  S
S410        C411   1.727   1_455  A
C411        C412   1.385       .  A
C412        H416   1.083       .  S
C417        S423   1.705       .  A
C417        C422   1.382       .  A
C417        C418   1.403       .  A
C418        C419   1.404       .  A
C418        H429   1.083       .  S
C419        C428   1.372       .  A
C419        C420   1.387       .  A
C420        S426   1.713       .  A
C420        C421   1.404       .  A
C421        C422   1.406       .  A
C421        H430   1.083       .  S
C422        C425   1.373       .  A
S423        C424   1.737       .  A
C424        C425   1.400       .  A
C425        H431   1.079       .  S
S426        C427   1.722       .  A
C427        C428   1.386       .  A
C428        H432   1.083       .  S
C433        S439   1.711       .  A
C433        C438   1.383   1_565  A
C433        C434   1.411       .  A
C434        C435   1.410       .  A
C434        H445   1.083       .  S
C435        C444   1.385       .  A
C435        C436   1.387   1_565  A
C436        S442   1.698       .  A
C436        C437   1.400       .  A
C437        C438   1.400       .  A
C437        H446   1.083       .  S
C438        C441   1.372       .  A
S439        C440   1.741   1_565  A
C440        C441   1.393       .  A
C441        H447   1.079       .  S
S442        C443   1.727   1_545  A
C443        C444   1.392       .  A
C444        H448   1.083       .  S
C449        S455   1.704   1_545  A
C449        C454   1.384       .  A
C449        C450   1.407   1_545  A
C450        C451   1.406       .  A
C450        H461   1.083       .  S
C451        C460   1.381       .  A
C451        C452   1.387   1_565  A
C452        S458   1.696       .  A
C452        C453   1.400       .  A
C453        C454   1.398       .  A
C453        H462   1.083       .  S
C454        C457   1.372       .  A
S455        C456   1.739   1_565  A
C456        C457   1.390       .  A
C457        H463   1.083   1_655  S
S458        C459   1.726       .  A
C459        C460   1.389   1_545  A
C460        H464   1.083       .  S
C465        S471   1.704       .  A
C465        C470   1.383       .  A
C465        C466   1.398       .  A
C466        C467   1.400       .  A
C466        H477   1.083       .  S
C467        C476   1.364       .  A
C467        C468   1.383   1_565  A
C468        S474   1.713       .  A
C468        C469   1.405   1_545  A
C469        C470   1.407       .  A
C469        H478   1.083   1_565  S
C470        C473   1.371   1_554  A
S471        C472   1.732   1_554  A
C472        C473   1.400       .  A
C473        H479   1.083       .  S
S474        C475   1.736       .  A
C475        C476   1.394   1_545  A
C476        H480   1.083       .  S
C481        S487   1.707   1_556  A
C481        C486   1.384       .  A
C481        C482   1.403   1_556  A
C482        C483   1.404   1_554  A
C482        H493   1.083       .  S
C483        C492   1.373   1_556  A
C483        C484   1.386       .  A
C484        S490   1.716       .  A
C484        C485   1.408       .  A
C485        C486   1.409       .  A
C485        H494   1.083       .  S
C486        C489   1.377       .  A
S487        C488   1.734   1_554  A
C488        C489   1.400       .  A
C489        H495   1.082       .  S
S490        C491   1.725       .  A
C491        C492   1.386   1_556  A
C492        H496   1.083       .  S
C497        S503   1.698       .  A
C497        C502   1.382   1_554  A
C497        C498   1.406       .  A
C498        C499   1.404       .  A
C498        H509   1.083       .  S
C499        C508   1.382       .  A
C499        C500   1.387   1_554  A
C500        S506   1.706       .  A
C500        C501   1.409       .  A
C501        C502   1.406       .  A
C501        H510   1.083       .  S
C502        C505   1.382       .  A
S503        C504   1.741   1_554  A
C504        C505   1.398       .  A
C505        H511   1.081       .  S
S506        C507   1.731   1_556  A
C507        C508   1.389       .  A
C508        H512   1.083       .  S
C513        S519   1.713       .  A
C513        C518   1.381       .  A
C513        C514   1.410       .  A
C514        C515   1.410       .  A
C514        H525   1.083       .  S
C515        C524   1.381       .  A
C515        C516   1.386       .  A
C516        S522   1.702       .  A
C516        C517   1.400       .  A
C517        C518   1.401       .  A
C517        H526   1.083       .  S
C518        C521   1.369       .  A
S519        C520   1.737       .  A
C520        C521   1.399       .  A
C521        H527   1.082       .  S
S522        C523   1.725       .  A
C523        C524   1.392       .  A
C524        H528   1.083       .  S
C529        S535   1.699   1_554  A
C529        C534   1.384       .  A
C529        C530   1.398       .  A
C530        C531   1.400       .  A
C530        H541   1.083   1_655  S
C531        C540   1.365   1_655  A
C531        C532   1.382       .  A
C532        S538   1.706       .  A
C532        C533   1.403       .  A
C533        C534   1.404       .  A
C533        H542   1.083       .  S
C534        C537   1.371   1_554  A
S535        C536   1.736       .  A
C536        C537   1.396       .  A
C537        H543   1.079   1_556  S
S538        C539   1.736       .  A
C539        C540   1.396   1_655  A
C540        H544   1.080       .  S
C545        S551   1.710       .  A
C545        C550   1.386       .  A
C545        C546   1.405       .  A
C546        C547   1.405       .  A
C546        H557   1.083       .  S
C547        C556   1.375       .  A
C547        C548   1.384       .  A
C548        S554   1.699       .  A
C548        C549   1.401       .  A
C549        C550   1.401       .  A
C549        H558   1.083       .  S
C550        C553   1.371       .  A
S551        C552   1.726       .  A
C552        C553   1.388       .  A
C553        H559   1.083       .  S
S554        C555   1.736       .  A
C555        C556   1.394       .  A
C556        H560   1.083       .  S
C561        S567   1.710       .  A
C561        C566   1.387       .  A
C561        C562   1.405       .  A
C562        C563   1.405       .  A
C562        H573   1.083       .  S
C563        C572   1.375       .  A
C563        C564   1.384       .  A
C564        S570   1.703       .  A
C564        C565   1.403       .  A
C565        C566   1.403       .  A
C565        H574   1.083       .  S
C566        C569   1.374       .  A
S567        C568   1.722       .  A
C568        C569   1.386       .  A
C569        H575   1.083   1_556  S
S570        C571   1.734       .  A
C571        C572   1.395       .  A
C572        H576   1.083       .  S
C577        S583   1.702   1_556  A
C577        C582   1.384       .  A
C577        C578   1.403   1_556  A
C578        C579   1.403   1_554  A
C578        H589   1.083       .  S
C579        C588   1.373   1_556  A
C579        C580   1.387       .  A
C580        S586   1.707       .  A
C580        C581   1.403       .  A
C581        C582   1.404       .  A
C581        H590   1.083       .  S
C582        C585   1.373       .  A
S583        C584   1.737   1_554  A
C584        C585   1.396       .  A
C585        H591   1.079       .  S
S586        C587   1.723       .  A
C587        C588   1.387   1_556  A
C588        H592   1.083       .  S
C593        S599   1.696       .  A
C593        C598   1.384       .  A
C593        C594   1.398       .  A
C594        C595   1.398       .  A
C594        H605   1.083       .  S
C595        C604   1.367       .  A
C595        C596   1.384       .  A
C596        S602   1.699       .  A
C596        C597   1.401       .  A
C597        C598   1.402       .  A
C597        H606   1.083       .  S
C598        C601   1.370       .  A
S599        C600   1.735       .  A
C600        C601   1.394       .  A
C601        H607   1.079       .  S
S602        C603   1.738       .  A
C603        C604   1.391       .  A
C604        H608   1.079       .  S
C609        S615   1.689       .  A
C609        C614   1.384       .  A
C609        C610   1.398       .  A
C610        C611   1.396       .  A
C610        H621   1.083       .  S
C611        C620   1.371       .  A
C611        C612   1.387       .  A
C612        S618   1.709       .  A
C612        C613   1.409       .  A
C613        C614   1.407       .  A
C613        H622   1.083       .  S
C614        C617   1.382       .  A
S615        C616   1.737       .  A
C616        C617   1.398       .  A
C617        H623   1.083       .  S
S618        C619   1.729       .  A
C619        C620   1.383       .  A
C620        H624   1.083       .  S
C625        S631   1.707       .  A
C625        C630   1.383       .  A
C625        C626   1.402       .  A
C626        C627   1.404       .  A
C626        H637   1.083       .  S
C627        C636   1.370       .  A
C627        C628   1.386       .  A
C628        S634   1.711       .  A
C628        C629   1.403       .  A
C629        C630   1.405       .  A
C629        H638   1.083       .  S
C630        C633   1.370       .  A
S631        C632   1.734       .  A
C632        C633   1.398       .  A
C633        H639   1.080       .  S
S634        C635   1.722       .  A
C635        C636   1.386       .  A
C636        H640   1.083       .  S
C641        S647   1.700       .  A
C641        C646   1.384       .  A
C641        C642   1.405       .  A
C642        C643   1.403       .  A
C642        H653   1.083       .  S
C643        C652   1.379       .  A
C643        C644   1.387       .  A
C644        S650   1.698       .  A
C644        C645   1.401       .  A
C645        C646   1.399       .  A
C645        H654   1.083       .  S
C646        C649   1.373       .  A
S647        C648   1.739       .  A
C648        C649   1.392       .  A
C649        H655   1.080       .  S
S650        C651   1.726       .  A
C651        C652   1.388       .  A
C652        H656   1.083       .  S
C657        S663   1.699   1_565  A
C657        C662   1.384       .  A
C657        C658   1.397       .  A
C658        C659   1.399       .  A
C658        H669   1.083       .  S
C659        C668   1.363       .  A
C659        C660   1.383       .  A
C660        S666   1.701       .  A
C660        C661   1.398       .  A
C661        C662   1.400       .  A
C661        H670   1.083   1_655  S
C662        C665   1.364       .  A
S663        C664   1.734       .  A
C664        C665   1.394   1_545  A
C665        H671   1.080   1_655  S
S666        C667   1.735       .  A
C667        C668   1.394       .  A
C668        H672   1.080       .  S
C673        S679   1.704       .  A
C673        C678   1.384       .  A
C673        C674   1.398       .  A
C674        C675   1.400       .  A
C674        H685   1.083       .  S
C675        C684   1.365       .  A
C675        C676   1.385       .  A
C676        S682   1.720       .  A
C676        C677   1.408       .  A
C677        C678   1.411       .  A
C677        H686   1.083       .  S
C678        C681   1.374       .  A
S679        C680   1.730       .  A
C680        C681   1.401       .  A
C681        H687   1.079       .  S
S682        C683   1.727       .  A
C683        C684   1.388       .  A
C684        H688   1.083       .  S
C689        S695   1.704       .  A
C689        C694   1.383       .  A
C689        C690   1.401       .  A
C690        C691   1.403       .  A
C690        H701   1.083       .  S
C691        C700   1.370       .  A
C691        C692   1.387       .  A
C692        S698   1.710       .  A
C692        C693   1.403       .  A
C693        C694   1.404       .  A
C693        H702   1.083       .  S
C694        C697   1.370       .  A
S695        C696   1.735       .  A
C696        C697   1.398       .  A
C697        H703   1.081       .  S
S698        C699   1.721       .  A
C699        C700   1.385       .  A
C700        H704   1.083       .  S
C705        S711   1.710       .  A
C705        C710   1.384       .  A
C705        C706   1.407       .  A
C706        C707   1.407       .  A
C706        H717   1.083       .  S
C707        C716   1.379       .  A
C707        C708   1.387       .  A
C708        S714   1.708       .  A
C708        C709   1.404       .  A
C709        C710   1.404       .  A
C709        H718   1.083       .  S
C710        C713   1.374       .  A
S711        C712   1.734       .  A
C712        C713   1.396       .  A
C713        H719   1.083       .  S
S714        C715   1.722       .  A
C715        C716   1.389       .  A
C716        H720   1.083       .  S
