geometry optimzed in LAMMPS
_audit_creation_date              2020-12-01 
_audit_creation_method            'lammps2cif' 
_symmetry_space_group_name_H-M    'P1' 
_symmetry_Int_Tables_number       1 
_symmetry_cell_setting            triclinic 
loop_ 
_symmetry_equiv_pos_as_xyz 
  x,y,z 
_cell_length_a                    36.41917526 
_cell_length_b                    39.47388776797735 
_cell_length_c                    39.52466348500458 
_cell_angle_alpha                 90.67293873595635 
_cell_angle_beta                  88.30125202918292 
_cell_angle_gamma                 89.737275353005 
loop_ 
_atom_site_label 
_atom_site_type_symbol 
_atom_site_fract_x 
_atom_site_fract_y 
_atom_site_fract_z 
_atom_site_charge 
C1          C  0.07620208  0.09259124  0.11281237     0.86200
C2          C  0.10440934  0.06873753  0.12974476    -0.54000
C3          C  0.13224596  0.08549123  0.14541253     0.09200
C4          C  0.12706136  0.12567410  0.14285889     0.20100
C5          C  0.06103062  0.11611706  0.14067301    -0.54700
C6          C  0.08559563  0.13495988  0.15663526     0.09300
C7          C  0.10115695  0.11337095  0.08855726    -0.54300
C8          C  0.12816402  0.13081964  0.10329957     0.09800
H9          H  0.10439056  0.04141598  0.12711079     0.14400
H10         H  0.14817022  0.14071367  0.15585027     0.00100
H11         H  0.03183139  0.11912310  0.14568525     0.14700
H12         H  0.09794056  0.11390473  0.06132555     0.14400
C13         C  0.07158746  0.16771770  0.17745576     0.29800
C14         C  0.06757736  0.23029663  0.21097765     0.29800
C15         C  0.09412146  0.19579443  0.16301779    -0.06400
C16         C  0.03162199  0.18537682  0.17878964    -0.07200
C17         C  0.07976156  0.16773369  0.21509835    -0.07100
C18         C  0.09206448  0.22717270  0.17927001    -0.06500
C19         C  0.02968495  0.21738188  0.19641746    -0.07200
C20         C  0.07818173  0.19921632  0.23209093    -0.07100
C21         C  0.09447029  0.25067913  0.15405331    -0.32500
N22         N  0.09944153  0.23483329  0.12408863     0.14000
C23         C  0.09651479  0.20185431  0.12921117    -0.32500
H24         H  0.08715672  0.18443216  0.11037705     0.15900
C25         C  0.49246430  0.22703164  0.19742754    -0.31500
N26         N  0.47168864  0.20343170  0.18079506     0.12700
C27         C  0.49529281  0.17827743  0.16932453    -0.31500
C28         C  0.06866290  0.19172861  0.26540003    -0.31800
N29         N  0.06763428  0.15770647  0.27035064     0.13200
H30         H  0.06134154  0.21029462  0.28482083     0.15900
C31         C  0.06974717  0.14383198  0.23892617    -0.31800
H32         H  0.06532471  0.11717665  0.23382245     0.15900
H33         H  0.48627025  0.15576409  0.15628665     0.15900
H34         H  0.08433313  0.27596515  0.15703370     0.15900
H35         H  0.48132655  0.24948116  0.20998005     0.15900
C36         C  0.07939837  0.31382939  0.26905318     0.86200
C37         C  0.10131335  0.33439477  0.24224848    -0.54000
C38         C  0.12452503  0.31629515  0.22156983     0.09200
C39         C  0.12113522  0.27654713  0.22933778     0.20100
C40         C  0.05725384  0.28647207  0.24887390    -0.54700
C41         C  0.07895821  0.26563745  0.22802265     0.09300
C42         C  0.10701246  0.29125164  0.28732421    -0.54300
C43         C  0.12997367  0.27298488  0.26759521     0.09800
H44         H  0.10062385  0.36187194  0.24187784     0.14400
H45         H  0.13915172  0.26051686  0.21275143     0.00100
H46         H  0.02833051  0.28147472  0.25350412     0.14700
H47         H  0.10776629  0.28895856  0.31469883     0.14400
C48         C  0.16641623  0.06773590  0.16179560     0.29800
C49         C  0.22840096  0.05036240  0.19656738     0.29800
C50         C  0.17042927  0.08374041  0.19581097    -0.06400
C51         C  0.17131010  0.02714043  0.17087471    -0.07200
C52         C  0.20430691  0.07767260  0.14509527    -0.07100
C53         C  0.19977557  0.07333410  0.21352612    -0.06500
C54         C  0.20347655  0.01969817  0.18917047    -0.07200
C55         C  0.23527264  0.06532051  0.16076689    -0.07100
C56         C  0.19151424  0.08014207  0.24649411    -0.32500
N57         N  0.16164507  0.10021222  0.24845525     0.14000
C58         C  0.14742522  0.10125849  0.21750281    -0.32500
H59         H  0.12070049  0.10948211  0.21185883     0.15900
C60         C  0.20322204  0.48577276  0.19819421    -0.31500
N61         N  0.17276092  0.46985530  0.18659305     0.12700
C62         C  0.15353327  0.99461680  0.16932590    -0.31500
C63         C  0.26592925  0.08083707  0.14591098    -0.31800
N64         N  0.25521315  0.10702644  0.12638352     0.13200
H65         H  0.29409503  0.07456510  0.15103752     0.15900
C66         C  0.21787752  0.10726229  0.13010119    -0.31800
H67         H  0.20209107  0.12998290  0.12880080     0.15900
H68         H  0.12872685  0.48949848  0.15583123     0.15900
H69         H  0.20440763  0.06792426  0.26729926     0.15900
H70         H  0.22493304  0.47306064  0.21126476     0.15900
C71         C  0.32824738  0.13850183  0.06070138     0.86200
C72         C  0.34500581  0.16381606  0.08540578    -0.54000
C73         C  0.32079654  0.17875133  0.10732872     0.09200
C74         C  0.27900611  0.16754899  0.09992002     0.20100
C75         C  0.30535872  0.11332250  0.08280984    -0.54700
C76         C  0.27908095  0.12791111  0.10383237     0.09300
C77         C  0.29825829  0.15693734  0.04116561    -0.54300
C78         C  0.27222568  0.17263052  0.06044888     0.09800
H79         H  0.37446244  0.16669173  0.08767594     0.14400
H80         H  0.25811431  0.18029188  0.11673266     0.00100
H81         H  0.30829534  0.08602157  0.08092684     0.14700
H82         H  0.29671329  0.15613128  0.01385186     0.14400
C83         C  0.11095365  0.09641037  0.33191207     0.86200
C84         C  0.07864360  0.11760712  0.31757176    -0.54000
C85         C  0.08999120  0.14233757  0.29556050     0.09200
C86         C  0.13140060  0.14361912  0.29027500     0.20100
C87         C  0.13404778  0.08452137  0.30096027    -0.54700
C88         C  0.14242851  0.10840063  0.27897356     0.09300
C89         C  0.13729769  0.12287774  0.34788531    -0.54300
C90         C  0.14769226  0.14799973  0.32587779     0.09800
H91         H  0.04988584  0.11144094  0.32181429     0.14400
H92         H  0.14049145  0.16183575  0.27066397     0.00100
H93         H  0.14333346  0.05864612  0.29609873     0.14700
H94         H  0.15164046  0.11945064  0.37107175     0.14400
C95         C  0.33147780  0.22025355  0.20691507     0.29800
C96         C  0.33400305  0.19479834  0.14170100     0.29800
C97         C  0.31751068  0.24352816  0.17955300    -0.06400
C98         C  0.37174375  0.21224354  0.19249863    -0.07200
C99         C  0.31305442  0.18682785  0.20105578    -0.07100
C100        C  0.31958245  0.23079848  0.14635503    -0.06500
C101        C  0.37356330  0.19855442  0.15875268    -0.07200
C102        C  0.31444283  0.17395627  0.16814877    -0.07100
C103        C  0.32893133  0.25811416  0.12641881    -0.32500
N104        N  0.32828893  0.28714036  0.14466366     0.14000
C105        C  0.32401592  0.27783049  0.17725605    -0.32500
H106        H  0.33009621  0.29424761  0.19839991     0.15900
C107        C  0.41152784  0.19328741  0.15152329    -0.31500
N108        N  0.43209575  0.20369757  0.17853900     0.12700
C109        C  0.40786724  0.21517875  0.20331548    -0.31500
C110        C  0.31823662  0.13944633  0.17052117    -0.31800
N111        N  0.31797499  0.13115591  0.20297527     0.13200
H112        H  0.32718997  0.12232379  0.15047070     0.15900
C113        C  0.31650922  0.15954108  0.22161043    -0.31800
H114        H  0.32684604  0.16081936  0.24660253     0.15900
H115        H  0.41592480  0.22482878  0.22769416     0.15900
H116        H  0.34007828  0.25670874  0.10080984     0.15900
H117        H  0.42323228  0.18332850  0.12796435     0.15900
C118        C  0.29789160  0.36508131  0.09695994     0.86200
C119        C  0.26719945  0.37396344  0.12247402    -0.54000
C120        C  0.25086664  0.34738508  0.13707297     0.09200
C121        C  0.26791740  0.31284747  0.12548391     0.20100
C122        C  0.32545792  0.34273205  0.11626880    -0.54700
C123        C  0.30898817  0.31576535  0.13190911     0.09300
C124        C  0.28205821  0.33900819  0.07158340    -0.54300
C125        C  0.26668454  0.31149340  0.08677109     0.09800
H126        H  0.25903356  0.39970095  0.12727823     0.14400
H127        H  0.25486063  0.29040439  0.13745275     0.00100
H128        H  0.35507758  0.34512432  0.11425900     0.14700
H129        H  0.28444632  0.34128409  0.04426526     0.14400
C130        C  0.32033099  0.04937951  0.24826908     0.86200
C131        C  0.28739545  0.03233404  0.22972547    -0.54000
C132        C  0.26210073  0.05551488  0.21901476     0.09200
C133        C  0.27117829  0.09263177  0.23050053     0.20100
C134        C  0.33431001  0.07615572  0.22329774    -0.54700
C135        C  0.30890830  0.09905691  0.21575421     0.09100
C136        C  0.30070839  0.06887678  0.27842760    -0.54300
C137        C  0.27571573  0.09231063  0.26895995     0.09800
H138        H  0.28346165  0.00555876  0.22563713     0.14400
H139        H  0.25202781  0.11285120  0.22263184     0.00100
H140        H  0.36288683  0.07895058  0.21507507     0.14700
H141        H  0.30810228  0.06608410  0.30466975     0.14400
C142        C  0.15577341  0.33396838  0.19887395     0.29800
C143        C  0.21694911  0.34947039  0.16011884     0.29800
C144        C  0.15540258  0.32228617  0.16182967    -0.06400
C145        C  0.16357963  0.37492298  0.19324606    -0.07200
C146        C  0.19367457  0.32026927  0.21030595    -0.07100
C147        C  0.18719234  0.32929304  0.14284292    -0.06500
C148        C  0.19528643  0.38123734  0.17239858    -0.07200
C149        C  0.22391686  0.33194555  0.19296748    -0.07100
C150        C  0.17788820  0.33105357  0.10955973    -0.32500
N151        N  0.14210654  0.32436286  0.10649477     0.14000
C152        C  0.12775154  0.32250070  0.13845813    -0.32500
H153        H  0.09874746  0.32521343  0.14431309     0.15900
C154        C  0.19870667  0.41577426  0.16691321    -0.31500
N155        N  0.17115417  0.43321599  0.18282465     0.12700
C156        C  0.14977650  0.40897643  0.19967494    -0.31500
C157        C  0.25474820  0.31752100  0.20578054    -0.31800
N158        N  0.24479734  0.29171848  0.22613240     0.13200
H159        H  0.28223544  0.32622281  0.20069974     0.15900
C160        C  0.20750420  0.29167037  0.22617426    -0.31800
H161        H  0.19217744  0.26986005  0.23237563     0.15900
H162        H  0.12610948  0.41526293  0.21573223     0.15900
H163        H  0.19542057  0.34015349  0.08923409     0.15900
H164        H  0.22034781  0.42849961  0.15321348     0.15900
C165        C  0.08343709  0.27942449  0.04241422     0.86200
C166        C  0.07379365  0.25594698  0.07228954    -0.54000
C167        C  0.10271464  0.24991327  0.09188648     0.09200
C168        C  0.13854510  0.26524553  0.07969762     0.20100
C169        C  0.10132146  0.31060691  0.06030387    -0.54700
C170        C  0.12994821  0.30280372  0.07961286     0.09300
C171        C  0.11519038  0.26060497  0.02255451    -0.54300
C172        C  0.14433884  0.25334048  0.04209279     0.09800
H173        H  0.04675316  0.24699790  0.07955210     0.14400
H174        H  0.16106529  0.25884486  0.09691376     0.00100
H175        H  0.08981504  0.33585957  0.06175761     0.14700
H176        H  0.11359341  0.25159068  0.99663981     0.14400
C177        C  0.31809977  0.27306245  0.29046088     0.86200
C178        C  0.33987010  0.25252521  0.26299055    -0.54000
C179        C  0.31828236  0.23317769  0.24287770     0.09200
C180        C  0.27572756  0.23638264  0.25403245     0.20100
C181        C  0.29188826  0.29365541  0.26862466    -0.54700
C182        C  0.26880042  0.27503429  0.24985271     0.09300
C183        C  0.29554400  0.24811532  0.31137504    -0.54300
C184        C  0.27191300  0.22982918  0.29413646     0.09800
H185        H  0.36839135  0.25742724  0.25631283     0.14400
H186        H  0.25709135  0.22073434  0.23864103     0.00100
H187        H  0.29251628  0.32112908  0.26727320     0.14700
H188        H  0.29621480  0.24711592  0.33882624     0.14400
C189        C  0.23909403  0.19151767  0.04450372     0.29800
C190        C  0.17768020  0.23062290  0.03370605     0.29800
C191        C  0.24021391  0.22860758  0.05608933    -0.06400
C192        C  0.22886869  0.19631739  0.00510417    -0.07200
C193        C  0.20239649  0.17869760  0.05971967    -0.07100
C194        C  0.21031928  0.24813489  0.04907489    -0.06500
C195        C  0.19655191  0.21623922  0.00028647    -0.07200
C196        C  0.17220798  0.19850858  0.05447853    -0.07100
C197        C  0.21918610  0.28144841  0.05493439    -0.32500
N198        N  0.25266853  0.28269266  0.06852665     0.14000
C199        C  0.26617749  0.25046515  0.06822998    -0.32500
H200        H  0.29331858  0.24306518  0.07428180     0.15900
C201        C  0.19238208  0.21909781  0.46535601    -0.31500
N202        N  0.22036778  0.20283196  0.44779367     0.12700
C203        C  0.24254124  0.18838156  0.47158287    -0.31500
C204        C  0.14183834  0.18144340  0.06698470    -0.31800
N205        N  0.15251317  0.15308828  0.08316864     0.13200
H206        H  0.11379777  0.18852765  0.06247444     0.15900
C207        C  0.18878789  0.14917383  0.07389748    -0.31800
H208        H  0.20362594  0.12556229  0.07365117     0.15900
H209        H  0.26652186  0.17315073  0.46510655     0.15900
H210        H  0.20233132  0.30302301  0.04926320     0.15900
H211        H  0.17021154  0.23249419  0.45362527     0.15900
C212        C  0.24167157  0.20927236  0.31358633     0.29800
C213        C  0.18173450  0.16982743  0.32787648     0.29800
C214        C  0.24320680  0.17294528  0.29985238    -0.06400
C215        C  0.23294040  0.20288014  0.35372715    -0.07200
C216        C  0.20450674  0.22292071  0.30280847    -0.07100
C217        C  0.21318093  0.15299495  0.30717834    -0.06500
C218        C  0.20150219  0.18229859  0.35997519    -0.07200
C219        C  0.17476409  0.20310159  0.30967290    -0.07100
C220        C  0.22490661  0.11969611  0.30354685    -0.32500
N221        N  0.26007381  0.11858735  0.29132497     0.14000
C222        C  0.27204358  0.15104713  0.29221079    -0.32500
H223        H  0.30048621  0.15798209  0.29252624     0.15900
C224        C  0.19522207  0.17977816  0.39474677    -0.31500
N225        N  0.22146637  0.19710544  0.41154162     0.12700
C226        C  0.24433252  0.21161503  0.38703552    -0.31500
C227        C  0.14429207  0.22014846  0.29865245    -0.31800
N228        N  0.15478138  0.24886593  0.28288201     0.13200
H229        H  0.11651042  0.21302748  0.30401994     0.15900
C230        C  0.19098123  0.25265958  0.28980713    -0.31800
H231        H  0.20615983  0.27590215  0.28745425     0.15900
H232        H  0.26683853  0.22829241  0.39278225     0.15900
H233        H  0.20956727  0.09788072  0.31188188     0.15900
H234        H  0.17239042  0.16692073  0.40702109     0.15900
N235        N  0.50475693  0.01675641  0.46183209    -0.06400
N236        N  0.49464010  0.04193131  0.48241586    -0.58500
N237        N  0.04803363  0.45849957  0.41533486    -0.06000
N238        N  0.08182496  0.45447264  0.40280879    -0.60600
N239        N  0.52876841  0.97744731  0.39565122    -0.05600
N240        N  0.54795900  0.98511703  0.36860611    -0.58500
N241        N  0.02168077  0.49336929  0.47911472    -0.05300
N242        N  0.02372240  0.50205830  0.51099937    -0.61000
C243        C  0.00665042  0.03220266  0.01296670     0.95800
C244        C  0.08164963  0.97201282  0.37358044     0.95600
N245        N  0.49000712  0.37526098  0.44025767    -0.06600
N246        N  0.49079881  0.35591768  0.41245652    -0.59100
N247        N  0.00101421  0.42553966  0.51073566    -0.04700
N248        N  0.02200854  0.41483050  0.53497035    -0.60300
N249        N  0.47011044  0.40882011  0.51157107    -0.06600
N250        N  0.47011351  0.38692476  0.53621125    -0.59300
N251        N  0.02135109  0.39149110  0.44226785    -0.04300
N252        N  0.04364329  0.38282627  0.41706080    -0.60400
Mn253      Mn  0.02422178  0.44214405  0.46268999     1.18400
C254        C  0.02489237  0.36070043  0.39844508     0.97900
C255        C  0.00462293  0.38721321  0.04649251     0.98600
N256        N  0.45212812  0.98756939  0.36691891    -0.06600
N257        N  0.46003838  0.99303319  0.33470108    -0.62900
N258        N  0.39999934  0.51432834  0.43346104    -0.05400
N259        N  0.37592310  0.53379358  0.44991557    -0.63600
N260        N  0.43122865  0.03018050  0.42943958    -0.06100
N261        N  0.42927953  0.06081116  0.44259877    -0.63200
N262        N  0.42050586  0.47210499  0.37010431    -0.05000
N263        N  0.40643998  0.96661394  0.34035938    -0.63900
Mn264      Mn  0.48025276  0.00420735  0.41251084     1.10700
C265        C  0.43060052  0.98085890  0.31825287     0.99100
C266        C  0.39525936  0.06377747  0.95494411     0.99200
N267        N  0.39364236  0.42575311  0.48781165    -0.06100
N268        N  0.38320213  0.42754185  0.51981209    -0.61500
N269        N  0.39490880  0.40880741  0.40528196    -0.05400
N270        N  0.38063697  0.39537339  0.37830486    -0.58200
N271        N  0.41020239  0.38548359  0.42334363    -0.06700
N272        N  0.40587622  0.35529529  0.40998367    -0.61100
N273        N  0.37671575  0.44902806  0.47045238    -0.05700
N274        N  0.35384419  0.46673641  0.49026312    -0.58200
Mn275      Mn  0.44045007  0.39745121  0.46654916     1.20200
Mn276      Mn  0.39614722  0.46121010  0.41943135     1.10100
Cl277      Cl  0.46007437  0.45144565  0.44043017    -0.86200
C278        C  0.35888460  0.45355053  0.02072308     0.96100
C279        C  0.38752882  0.36207087  0.38190664     0.95900
C280        C  0.31534016  0.31946420  0.33406035    -0.02100
C281        C  0.33709494  0.29498552  0.31541298     0.07600
C282        C  0.37190640  0.28596727  0.32775768    -0.02200
C283        C  0.38846860  0.30745208  0.35098585    -0.02200
C284        C  0.36940404  0.33657569  0.36259797     0.07700
C285        C  0.33213333  0.34128151  0.35632012    -0.02400
Br286      Br  0.30280287  0.37573009  0.38037308    -0.01000
Br287      Br  0.26165857  0.32091906  0.33440542    -0.01000
Br288      Br  0.43646931  0.29601940  0.36737700    -0.01000
Br289      Br  0.39441069  0.24200773  0.31906368    -0.01000
C290        C  0.00480069  0.32459378  0.05164928    -0.02100
C291        C  0.02283608  0.35408601  0.03971583     0.07600
C292        C  0.05005173  0.35021520  0.01277441    -0.02200
C293        C  0.05909139  0.31749644  0.00071853    -0.02200
C294        C  0.05071595  0.29029765  0.02181253     0.07700
C295        C  0.01687526  0.29281166  0.03965618    -0.02400
Br296      Br  0.98569779  0.25370652  0.04291112    -0.01000
Br297      Br  0.96369436  0.32708330  0.08371663    -0.01000
Br298      Br  0.09225185  0.31036302  0.96260838    -0.01000
Br299      Br  0.08274321  0.38620066  0.49796907    -0.01000
C300        C  0.41164308  0.03454723  0.29188788    -0.02100
C301        C  0.41461399  0.99901863  0.29000942     0.07600
C302        C  0.39247718  0.98081413  0.26768719    -0.02200
C303        C  0.36434019  0.99734380  0.25063956    -0.02200
C304        C  0.35473111  0.03106032  0.26000718     0.07700
C305        C  0.38112372  0.05046545  0.27827157    -0.02400
Br306      Br  0.37750082  0.09953654  0.28515727    -0.01000
Br307      Br  0.44771905  0.06208067  0.31461592    -0.01000
Br308      Br  0.34607184  0.97536230  0.21080066    -0.01000
Br309      Br  0.40021216  0.43272126  0.26152211    -0.01000
C310        C  0.33760571  0.41884149  0.09630935    -0.02100
C311        C  0.30989399  0.39847471  0.08156318     0.07600
C312        C  0.28630234  0.41499006  0.05832572    -0.02200
C313        C  0.29800976  0.44495073  0.04285150    -0.02200
C314        C  0.33301852  0.45680344  0.04929501     0.07700
C315        C  0.34806622  0.44891876  0.08029347    -0.02400
Br316      Br  0.38735094  0.47649443  0.09640762    -0.01000
Br317      Br  0.35928719  0.40949799  0.13924818    -0.01000
Br318      Br  0.26851049  0.46812712  0.51081302    -0.01000
Br319      Br  0.23699842  0.39984453  0.04898445    -0.01000
C320        C  0.11478496  0.05338033  0.38054353    -0.02100
C321        C  0.10010832  0.06315846  0.34926477     0.07600
C322        C  0.08854332  0.03670400  0.32703369    -0.02200
C323        C  0.10476993  0.00469281  0.32977696    -0.02200
C324        C  0.11181887  0.99394024  0.36237166     0.07700
C325        C  0.12192761  0.01868529  0.38640241    -0.02400
Br326      Br  0.14323874  0.00427916  0.42784028    -0.01000
Br327      Br  0.11605248  0.08475435  0.41822167    -0.01000
Br328      Br  0.10103846  0.97094997  0.29438679    -0.01000
Br329      Br  0.05754141  0.04509437  0.28908407    -0.01000
C330        C  0.37438913  0.09205409  0.04403992    -0.02100
C331        C  0.35775248  0.12343881  0.03726676     0.07600
C332        C  0.36753564  0.13970111  0.00649248    -0.02200
C333        C  0.38043145  0.12001931  0.97904969    -0.02200
C334        C  0.38690200  0.08550176  0.98387383     0.07700
C335        C  0.38827331  0.07250306  0.01682512    -0.02400
Br336      Br  0.41039171  0.52902391  0.02465431    -0.01000
Br337      Br  0.38318569  0.07844463  0.08994231    -0.01000
Br338      Br  0.38620434  0.13822586  0.43437059    -0.01000
Br339      Br  0.36491640  0.18840885  0.00202730    -0.01000
C340        C  0.07483233  0.35388486  0.35451604    -0.02100
C341        C  0.03675166  0.35414172  0.36257708     0.07600
C342        C  0.01227412  0.35435722  0.33524743    -0.02200
C343        C  0.02484098  0.34340099  0.30254467    -0.02200
C344        C  0.06262858  0.33745498  0.29665867     0.07700
C345        C  0.08688301  0.35106934  0.32081766    -0.02400
Br346      Br  0.13801669  0.36107454  0.30953550    -0.01000
Br347      Br  0.11199122  0.35521749  0.38857753    -0.01000
Br348      Br  0.99311963  0.34556931  0.26454394    -0.01000
Br349      Br  0.46572512  0.37722228  0.34014509    -0.01000
C350        C  0.00771584  0.03217171  0.07513119    -0.02100
C351        C  0.00187065  0.05031949  0.04516598     0.07600
C352        C  0.00461169  0.08560136  0.04583025    -0.02200
C353        C  0.02512229  0.10049630  0.07122850    -0.02200
C354        C  0.04373855  0.07907889  0.09416288     0.07700
C355        C  0.02893982  0.04683703  0.10020090    -0.02400
Br356      Br  0.03271857  0.02519367  0.14351004    -0.01000
Br357      Br  0.98913759  0.48685535  0.08060538    -0.01000
Br358      Br  0.02813292  0.14955538  0.07290809    -0.01000
Br359      Br  0.98480823  0.11291141  0.51029186    -0.01000
C360        C  0.07623844  0.09245807  0.61275900     0.86200
C361        C  0.10437129  0.06856321  0.62975761    -0.54000
C362        C  0.13229208  0.08529790  0.64535946     0.09200
C363        C  0.12717965  0.12548535  0.64275117     0.20100
C364        C  0.06112928  0.11605250  0.64058042    -0.54700
C365        C  0.08573709  0.13485133  0.65653396     0.09300
C366        C  0.10127024  0.11313432  0.58847454    -0.54300
C367        C  0.12828571  0.13058262  0.60318815     0.09800
H368        H  0.10419591  0.04123141  0.62724879     0.14400
H369        H  0.14831658  0.14051290  0.65571680     0.00100
H370        H  0.03193747  0.11910879  0.64559334     0.14700
H371        H  0.09808133  0.11362045  0.56123678     0.14400
C372        C  0.07179412  0.16762827  0.67735982     0.29800
C373        C  0.06781873  0.23021624  0.71086211     0.29800
C374        C  0.09443574  0.19566177  0.66297689    -0.06400
C375        C  0.03186152  0.18534572  0.67862377    -0.07200
C376        C  0.07989287  0.16764083  0.71502570    -0.07100
C377        C  0.09238728  0.22703904  0.67921738    -0.06500
C378        C  0.02993890  0.21735267  0.69624094    -0.07200
C379        C  0.07833300  0.19913430  0.73200552    -0.07100
C380        C  0.09495706  0.25054106  0.65401646    -0.32500
N381        N  0.10005661  0.23469431  0.62407137     0.14000
C382        C  0.09699141  0.20172170  0.62918013    -0.32500
H383        H  0.08758050  0.18434743  0.61033402     0.15900
C384        C  0.49270634  0.22697644  0.69732054    -0.31500
N385        N  0.47191400  0.20336246  0.68072394     0.12700
C386        C  0.49551650  0.17822257  0.66922509    -0.31500
C387        C  0.06875869  0.19168046  0.76530676    -0.31800
N388        N  0.06768482  0.15766351  0.77027520     0.13200
H389        H  0.06144288  0.21026343  0.78470947     0.15900
C390        C  0.06981300  0.14376526  0.73885884    -0.31800
H391        H  0.06538632  0.11711014  0.73376954     0.15900
H392        H  0.48646856  0.15568408  0.65624290     0.15900
H393        H  0.08482531  0.27583825  0.65696595     0.15900
H394        H  0.48157007  0.24940108  0.70992271     0.15900
C395        C  0.07963978  0.31382905  0.76880479     0.86200
C396        C  0.10155963  0.33432836  0.74197758    -0.54000
C397        C  0.12478092  0.31618627  0.72137178     0.09200
C398        C  0.12137755  0.27645892  0.72919904     0.20100
C399        C  0.05749617  0.28643234  0.74867833    -0.54700
C400        C  0.07920428  0.26555992  0.72787943     0.09300
C401        C  0.10722405  0.29128540  0.78714900    -0.54300
C402        C  0.13018083  0.27296537  0.76746281     0.09800
H403        H  0.10088078  0.36180365  0.74155318     0.14400
H404        H  0.13939707  0.26039763  0.71265146     0.00100
H405        H  0.02857304  0.28142847  0.75330992     0.14700
H406        H  0.10795133  0.28905537  0.81452972     0.14400
C407        C  0.16646721  0.06755682  0.66177686     0.29800
C408        C  0.22843012  0.05023010  0.69663357     0.29800
C409        C  0.17046764  0.08362489  0.69576909    -0.06400
C410        C  0.17135426  0.02698401  0.67091942    -0.07200
C411        C  0.20438966  0.07744698  0.64508514    -0.07100
C412        C  0.19980826  0.07325931  0.71350947    -0.06500
C413        C  0.20349375  0.01957021  0.68926891    -0.07200
C414        C  0.23534004  0.06510988  0.66081473    -0.07100
C415        C  0.19159185  0.08022477  0.74644480    -0.32500
N416        N  0.16175569  0.10033461  0.74836115     0.14000
C417        C  0.14750449  0.10125516  0.71741317    -0.32500
H418        H  0.12076375  0.10945456  0.71176018     0.15900
C419        C  0.20328451  0.48563931  0.69825111    -0.31500
N420        N  0.17288968  0.46969211  0.68655861     0.12700
C421        C  0.15364778  0.99443825  0.66928977    -0.31500
C422        C  0.26602263  0.08061216  0.64600819    -0.31800
N423        N  0.25534312  0.10678641  0.62645423     0.13200
H424        H  0.29417492  0.07435642  0.65120170     0.15900
C425        C  0.21800048  0.10702264  0.63009013    -0.31800
H426        H  0.20222880  0.12974435  0.62874402     0.15900
H427        H  0.12890372  0.48928788  0.65570909     0.15900
H428        H  0.20446073  0.06803497  0.76727850     0.15900
H429        H  0.22500487  0.47293659  0.71132319     0.15900
C430        C  0.32836611  0.13821656  0.56076397     0.86200
C431        C  0.34514968  0.16358094  0.58542123    -0.54000
C432        C  0.32096150  0.17850907  0.60738704     0.09200
C433        C  0.27916190  0.16729303  0.59999851     0.20100
C434        C  0.30554927  0.11305131  0.58294325    -0.54700
C435        C  0.27925516  0.12765647  0.60394234     0.09300
C436        C  0.29830766  0.15656180  0.54125437    -0.54300
C437        C  0.27234667  0.17231976  0.56052063     0.09800
H438        H  0.37460788  0.16647211  0.58764784     0.14400
H439        H  0.25827279  0.18004545  0.61680600     0.00100
H440        H  0.30855644  0.08575164  0.58112102     0.14700
H441        H  0.29659850  0.15559994  0.51396146     0.14400
C442        C  0.11102567  0.09633302  0.83176629     0.86200
C443        C  0.07869846  0.11752487  0.81745441    -0.54000
C444        C  0.09002945  0.14231048  0.79549872     0.09200
C445        C  0.13143818  0.14365664  0.79024828     0.20100
C446        C  0.13415913  0.08454919  0.80081359    -0.54700
C447        C  0.14251738  0.10847440  0.77888049     0.09300
C448        C  0.13731536  0.12280831  0.84782386    -0.54300
C449        C  0.14768437  0.14800690  0.82588174     0.09800
H450        H  0.04994923  0.11131712  0.82166140     0.14400
H451        H  0.14051312  0.16189893  0.77065998     0.00100
H452        H  0.14349255  0.05869437  0.79590507     0.14700
H453        H  0.15161124  0.11936837  0.87103360     0.14400
C454        C  0.33169679  0.22008667  0.70700377     0.29800
C455        C  0.33419509  0.19457171  0.64177406     0.29800
C456        C  0.31774646  0.24334264  0.67961667    -0.06400
C457        C  0.37195794  0.21204025  0.69257253    -0.07200
C458        C  0.31323900  0.18667899  0.70114853    -0.07100
C459        C  0.31981449  0.23058823  0.64641947    -0.06500
C460        C  0.37375708  0.19832826  0.65882755    -0.07200
C461        C  0.31461780  0.17377426  0.66824982    -0.07100
C462        C  0.32920849  0.25788355  0.62647380    -0.32500
N463        N  0.32857286  0.28691937  0.64469853     0.14000
C464        C  0.32427298  0.27763761  0.67729678    -0.32500
H465        H  0.33035546  0.29406801  0.69843165     0.15900
C466        C  0.41171997  0.19311883  0.65155455    -0.31500
N467        N  0.43231271  0.20357894  0.67853520     0.12700
C468        C  0.40809976  0.21504298  0.70333633    -0.31500
C469        C  0.31833243  0.13926239  0.67066443    -0.31800
N470        N  0.31800498  0.13101323  0.70313292     0.13200
H471        H  0.32727131  0.12210105  0.65064146     0.15900
C472        C  0.31660441  0.15941552  0.72173760    -0.31800
H473        H  0.32691976  0.16070214  0.74673488     0.15900
H474        H  0.41617756  0.22475070  0.72768992     0.15900
H475        H  0.34031941  0.25646271  0.60085041     0.15900
H476        H  0.42340628  0.18318121  0.62798001     0.15900
C477        C  0.29817501  0.36478269  0.59688071     0.86200
C478        C  0.26752178  0.37372590  0.62242224    -0.54000
C479        C  0.25120179  0.34718878  0.63707614     0.09200
C480        C  0.26820654  0.31261638  0.62552792     0.20100
C481        C  0.32575346  0.34244340  0.61618446    -0.54700
C482        C  0.30928172  0.31552871  0.63191009     0.09300
C483        C  0.28229482  0.33867223  0.57156567    -0.54300
C484        C  0.26692910  0.31118382  0.58681551     0.09800
H485        H  0.25932432  0.39947221  0.62719977     0.14400
H486        H  0.25514704  0.29020087  0.63755003     0.00100
H487        H  0.35537544  0.34476141  0.61407660     0.14700
H488        H  0.28466289  0.34089677  0.54424094     0.14400
C489        C  0.32029379  0.04925953  0.74849155     0.86200
C490        C  0.28742393  0.03220591  0.72984210    -0.54000
C491        C  0.26212288  0.05538600  0.71911078     0.09200
C492        C  0.27117389  0.09250798  0.73062948     0.20100
C493        C  0.33430791  0.07607023  0.72356926    -0.54700
C494        C  0.30892142  0.09894027  0.71595610     0.09100
C495        C  0.30053002  0.06868285  0.77861691    -0.54300
C496        C  0.27562483  0.09217233  0.76910433     0.09800
H497        H  0.28350648  0.00543492  0.72572965     0.14400
H498        H  0.25205769  0.11273848  0.72272814     0.00100
H499        H  0.36290333  0.07890999  0.71541807     0.14700
H500        H  0.30781303  0.06583710  0.80487966     0.14400
C501        C  0.15605914  0.33382941  0.69873829     0.29800
C502        C  0.21727830  0.34934257  0.66008905     0.29800
C503        C  0.15575775  0.32213825  0.66171147    -0.06400
C504        C  0.16384138  0.37477569  0.69311999    -0.07200
C505        C  0.19392944  0.32014007  0.71024155    -0.07100
C506        C  0.18757621  0.32914831  0.64277909    -0.06500
C507        C  0.19557727  0.38111086  0.67232238    -0.07200
C508        C  0.22419374  0.33184337  0.69295420    -0.07100
C509        C  0.17836128  0.33087445  0.60947837    -0.32500
N510        N  0.14259597  0.32418659  0.60637200     0.14000
C511        C  0.12816085  0.32235482  0.63830051    -0.32500
H512        H  0.09914110  0.32506388  0.64409322     0.15900
C513        C  0.19897616  0.41565493  0.66686052    -0.31500
N514        N  0.17136114  0.43306009  0.68273848     0.12700
C515        C  0.14998125  0.40879937  0.69953940    -0.31500
C516        C  0.25499448  0.31734520  0.70571760    -0.31800
N517        N  0.24501391  0.29148280  0.72597562     0.13200
H518        H  0.28249100  0.32605104  0.70067928     0.15900
C519        C  0.20772690  0.29147039  0.72601867    -0.31800
H520        H  0.19239192  0.26965686  0.73220940     0.15900
H521        H  0.12627594  0.41505865  0.71556354     0.15900
H522        H  0.19593558  0.33992637  0.58916340     0.15900
H523        H  0.22065440  0.42838840  0.65320909     0.15900
C524        C  0.08377157  0.27933077  0.54248339     0.86200
C525        C  0.07423762  0.25584914  0.57238603    -0.54000
C526        C  0.10322729  0.24978070  0.59187196     0.09200
C527        C  0.13901215  0.26508448  0.57957257     0.20100
C528        C  0.10178514  0.31047442  0.56028979    -0.54700
C529        C  0.13046543  0.30265100  0.57948512     0.09300
C530        C  0.11542915  0.26046865  0.52250156    -0.54300
C531        C  0.14464891  0.25315212  0.54196152     0.09800
H532        H  0.04723267  0.24690721  0.57975402     0.14400
H533        H  0.16157162  0.25867061  0.59674223     0.00100
H534        H  0.09030534  0.33573164  0.56184277     0.14700
H535        H  0.11371904  0.25148010  0.49658740     0.14400
C536        C  0.31816698  0.27310724  0.79045414     0.86200
C537        C  0.34001117  0.25246599  0.76308222    -0.54000
C538        C  0.31847749  0.23303303  0.74298158     0.09200
C539        C  0.27590767  0.23623340  0.75409031     0.20100
C540        C  0.29199857  0.29356647  0.76849158    -0.54700
C541        C  0.26896122  0.27486551  0.74977095     0.09300
C542        C  0.29557474  0.24823521  0.81144340    -0.54300
C543        C  0.27202670  0.22980563  0.79422191     0.09800
H544        H  0.36854147  0.25736157  0.75643405     0.14400
H545        H  0.25730594  0.22052313  0.73872604     0.00100
H546        H  0.29262112  0.32103381  0.76700932     0.14700
H547        H  0.29616710  0.24738620  0.83890295     0.14400
C548        C  0.23926957  0.19120503  0.54449500     0.29800
C549        C  0.17793443  0.23036320  0.53356182     0.29800
C550        C  0.24042611  0.22830001  0.55603951    -0.06400
C551        C  0.22910658  0.19597183  0.50505499    -0.07200
C552        C  0.20255343  0.17843336  0.55967111    -0.07100
C553        C  0.21060738  0.24786193  0.54890954    -0.06500
C554        C  0.19682053  0.21592575  0.50018520    -0.07200
C555        C  0.17239251  0.19825810  0.55436480    -0.07100
C556        C  0.21949404  0.28116552  0.55484007    -0.32500
N557        N  0.25288437  0.28235415  0.56862232     0.14000
C558        C  0.26633028  0.25010417  0.56837804    -0.32500
H559        H  0.29338942  0.24264053  0.57462456     0.15900
C560        C  0.19206961  0.21940100  0.96545531    -0.31500
N561        N  0.22006469  0.20316426  0.94786826     0.12700
C562        C  0.24228151  0.18874489  0.97163243    -0.31500
C563        C  0.14199280  0.18118215  0.56681247    -0.31800
N564        N  0.15263686  0.15282502  0.58302585     0.13200
H565        H  0.11395936  0.18828786  0.56228975     0.15900
C566        C  0.18892343  0.14891029  0.57382489    -0.31800
H567        H  0.20376287  0.12530016  0.57361721     0.15900
H568        H  0.26627350  0.17353624  0.96513655     0.15900
H569        H  0.20269237  0.30276636  0.54913873     0.15900
H570        H  0.16986561  0.23276866  0.95374208     0.15900
C571        C  0.24174148  0.20925904  0.81367232     0.29800
C572        C  0.18172760  0.16985038  0.82793324     0.29800
C573        C  0.24329125  0.17287447  0.80006126    -0.06400
C574        C  0.23285497  0.20300209  0.85381428    -0.07200
C575        C  0.20461349  0.22286189  0.80274981    -0.07100
C576        C  0.21323693  0.15296007  0.80737937    -0.06500
C577        C  0.20138802  0.18243990  0.86004561    -0.07200
C578        C  0.17483693  0.20307371  0.80961226    -0.07100
C579        C  0.22487547  0.11964392  0.80370029    -0.32500
N580        N  0.26002946  0.11849035  0.79145083     0.14000
C581        C  0.27207633  0.15093250  0.79236492    -0.32500
H582        H  0.30052967  0.15782054  0.79262635     0.15900
C583        C  0.19498243  0.18004748  0.89481153    -0.31500
N584        N  0.22117233  0.19743541  0.91161770     0.12700
C585        C  0.24413571  0.21184514  0.88712780    -0.31500
C586        C  0.14439239  0.22015342  0.79858163    -0.31800
N587        N  0.15493516  0.24883998  0.78279016     0.13200
H588        H  0.11659280  0.21307883  0.80395002     0.15900
C589        C  0.19113425  0.25260098  0.78971359    -0.31800
H590        H  0.20633508  0.27583061  0.78734728     0.15900
H591        H  0.26665244  0.22850919  0.89288438     0.15900
H592        H  0.20947428  0.09784376  0.81197326     0.15900
H593        H  0.17212848  0.16720250  0.90706596     0.15900
N594        N  0.50528453  0.01723477  0.96178537    -0.06400
N595        N  0.49507077  0.04229895  0.98246534    -0.58500
N596        N  0.04841963  0.45898309  0.91513885    -0.06000
N597        N  0.08206680  0.45456491  0.90240170    -0.60600
N598        N  0.52920744  0.97802333  0.89550752    -0.05600
N599        N  0.54825750  0.98536774  0.86829134    -0.58500
N600        N  0.02210997  0.49374087  0.97901585    -0.05300
N601        N  0.02397812  0.50225594  0.01095984    -0.61000
C602        C  0.00640873  0.03201514  0.51291623     0.95800
C603        C  0.08186733  0.97201103  0.87311692     0.95600
N604        N  0.49014979  0.37587001  0.93966077    -0.06600
N605        N  0.49091564  0.35659377  0.91182038    -0.59100
N606        N  0.00118707  0.42579121  0.01034963    -0.04700
N607        N  0.02205309  0.41483772  0.03457392    -0.60300
N608        N  0.47019246  0.40921683  0.01103720    -0.06600
N609        N  0.46998309  0.38721524  0.03557944    -0.59300
N610        N  0.02152867  0.39202287  0.94174910    -0.04300
N611        N  0.04381663  0.38339399  0.91652943    -0.60400
Mn612      Mn  0.02453597  0.44256005  0.96240604     1.18400
C613        C  0.02502840  0.36134582  0.89785945     0.97900
C614        C  0.00479071  0.38717157  0.54705360     0.98600
N615        N  0.45271446  0.98857269  0.86669382    -0.06600
N616        N  0.46076410  0.99395090  0.83447994    -0.62900
N617        N  0.40057788  0.51525679  0.93324400    -0.05400
N618        N  0.37648304  0.53479628  0.94958445    -0.63600
N619        N  0.43186076  0.03104515  0.92933205    -0.06100
N620        N  0.42993443  0.06168752  0.94248593    -0.63200
N621        N  0.42109311  0.47309379  0.86980599    -0.05000
N622        N  0.40720347  0.96744499  0.84001835    -0.63900
Mn623      Mn  0.48082299  0.00495997  0.91238628     1.10700
C624        C  0.43143464  0.98164563  0.81795128     0.99100
C625        C  0.39465395  0.06281098  0.45517467     0.99200
N626        N  0.39392063  0.42631731  0.98725463    -0.06100
N627        N  0.38344167  0.42780809  0.01924631    -0.61500
N628        N  0.39512860  0.40974318  0.90469322    -0.05400
N629        N  0.38065983  0.39635951  0.87776947    -0.58200
N630        N  0.41041951  0.38635362  0.92267199    -0.06700
N631        N  0.40590852  0.35619442  0.90932408    -0.61100
N632        N  0.37705198  0.44976103  0.97007000    -0.05700
N633        N  0.35414434  0.46729400  0.99001679    -0.58200
Mn634      Mn  0.44064595  0.39808386  0.96592731     1.20200
Mn635      Mn  0.39656891  0.46213670  0.91906143     1.10100
Cl636      Cl  0.46044341  0.45213884  0.94008698    -0.86200
C637        C  0.35862924  0.45329626  0.52108145     0.96100
C638        C  0.38746259  0.36302405  0.88132224     0.95900
C639        C  0.31532766  0.31995895  0.83362918    -0.02100
C640        C  0.33708100  0.29526254  0.81528293     0.07600
C641        C  0.37189156  0.28643836  0.82771088    -0.02200
C642        C  0.38842753  0.30818717  0.85071965    -0.02200
C643        C  0.36939597  0.33749298  0.86195389     0.07700
C644        C  0.33213773  0.34213856  0.85554305    -0.02400
Br645      Br  0.30278208  0.37693004  0.87904205    -0.01000
Br646      Br  0.26164044  0.32129159  0.83402824    -0.01000
Br647      Br  0.43633437  0.29679587  0.86736275    -0.01000
Br648      Br  0.39442471  0.24242770  0.81941047    -0.01000
C649        C  0.00537202  0.32462017  0.55245851    -0.02100
C650        C  0.02320820  0.35412777  0.54035477     0.07600
C651        C  0.05023630  0.35029977  0.51325443    -0.02200
C652        C  0.05918724  0.31759554  0.50107169    -0.02200
C653        C  0.05091534  0.29032844  0.52211552     0.07700
C654        C  0.01723153  0.29286501  0.54022051    -0.02400
Br655      Br  0.98597005  0.25383532  0.54361128    -0.01000
Br656      Br  0.96485671  0.32709191  0.58515117    -0.01000
Br657      Br  0.09221432  0.31053394  0.46287585    -0.01000
Br658      Br  0.08254662  0.38608596  0.99740834    -0.01000
C659        C  0.41202175  0.03512651  0.79166666    -0.02100
C660        C  0.41547720  0.99966300  0.78961399     0.07600
C661        C  0.39341247  0.98129187  0.76737218    -0.02200
C662        C  0.36480319  0.99752106  0.75067901    -0.02200
C663        C  0.35479753  0.03110659  0.76026277     0.07700
C664        C  0.38106520  0.05072005  0.77850730    -0.02400
Br665      Br  0.37675975  0.09968489  0.78593893    -0.01000
Br666      Br  0.44814647  0.06294795  0.81398043    -0.01000
Br667      Br  0.34613775  0.97521549  0.71117926    -0.01000
Br668      Br  0.40193759  0.43334416  0.76089726    -0.01000
C669        C  0.33771229  0.41865229  0.59631681    -0.02100
C670        C  0.31011671  0.39818492  0.58147377     0.07600
C671        C  0.28637086  0.41470625  0.55834727    -0.02200
C672        C  0.29779651  0.44489065  0.54313933    -0.02200
C673        C  0.33273612  0.45687444  0.54960245     0.07700
C674        C  0.34772617  0.44901693  0.58060991    -0.02400
Br675      Br  0.38633747  0.47714818  0.59712748    -0.01000
Br676      Br  0.35991394  0.40904329  0.63895731    -0.01000
Br677      Br  0.26894875  0.46802967  0.01024403    -0.01000
Br678      Br  0.23716261  0.39935606  0.54889961    -0.01000
C679        C  0.11507025  0.05310065  0.88014978    -0.02100
C680        C  0.10023622  0.06299206  0.84898026     0.07600
C681        C  0.08868390  0.03660886  0.82664051    -0.02200
C682        C  0.10493033  0.00457531  0.82922647    -0.02200
C683        C  0.11214449  0.99373952  0.86176250     0.07700
C684        C  0.12245505  0.01841248  0.88577788    -0.02400
Br685      Br  0.14421887  0.00387992  0.92696125    -0.01000
Br686      Br  0.11616998  0.08424971  0.91801784    -0.01000
Br687      Br  0.10078433  0.97085867  0.79385849    -0.01000
Br688      Br  0.05761421  0.04514253  0.78877255    -0.01000
C689        C  0.37456101  0.09183286  0.54418303    -0.02100
C690        C  0.35779732  0.12312134  0.53727255     0.07600
C691        C  0.36708718  0.13905412  0.50620332    -0.02200
C692        C  0.37960855  0.11910095  0.47883688    -0.02200
C693        C  0.38631213  0.08468235  0.48396825     0.07700
C694        C  0.38812839  0.07201940  0.51702555    -0.02400
Br695      Br  0.41028456  0.52859893  0.52504392    -0.01000
Br696      Br  0.38376426  0.07866646  0.59013901    -0.01000
Br697      Br  0.38793218  0.13967250  0.93492552    -0.01000
Br698      Br  0.36426067  0.18769152  0.50116984    -0.01000
C699        C  0.07504826  0.35431568  0.85406947    -0.02100
C700        C  0.03695316  0.35469603  0.86204647     0.07600
C701        C  0.01251490  0.35477394  0.83468813    -0.02200
C702        C  0.02511208  0.34359156  0.80208308    -0.02200
C703        C  0.06289564  0.33756000  0.79629788     0.07700
C704        C  0.08715810  0.35126420  0.82041161    -0.02400
Br705      Br  0.13836414  0.36106547  0.80918247    -0.01000
Br706      Br  0.11212849  0.35567636  0.88822060    -0.01000
Br707      Br  0.99337779  0.34534989  0.76406356    -0.01000
Br708      Br  0.46592508  0.37760663  0.83939131    -0.01000
C709        C  0.00749888  0.03226640  0.57509881    -0.02100
C710        C  0.00189090  0.05033147  0.54502777     0.07600
C711        C  0.00494527  0.08559938  0.54552471    -0.02200
C712        C  0.02532766  0.10047977  0.57102174    -0.02200
C713        C  0.04372748  0.07905076  0.59408761     0.07700
C714        C  0.02869247  0.04692551  0.60020317    -0.02400
Br715      Br  0.03209145  0.02552358  0.64366422    -0.01000
Br716      Br  0.98866812  0.48704582  0.58067706    -0.01000
Br717      Br  0.02849329  0.14953442  0.57267605    -0.01000
Br718      Br  0.98370043  0.11292091  0.01100123    -0.01000
C719        C  0.07620197  0.59259198  0.11281353     0.86200
C720        C  0.10440857  0.56873814  0.12974635    -0.54000
C721        C  0.13224538  0.58549138  0.14541416     0.09200
C722        C  0.12706113  0.62567424  0.14286022     0.20100
C723        C  0.06103065  0.61611824  0.14067385    -0.54700
C724        C  0.08559564  0.63496073  0.15663640     0.09300
C725        C  0.10115753  0.61337101  0.08855858    -0.54300
C726        C  0.12816443  0.63081974  0.10330093     0.09800
H727        H  0.10438920  0.54141539  0.12711230     0.14400
H728        H  0.14817121  0.64071450  0.15585225     0.00100
H729        H  0.03183077  0.61912450  0.14568627     0.14700
H730        H  0.09794140  0.61390469  0.06132606     0.14400
C731        C  0.07158757  0.66771876  0.17745658     0.29800
C732        C  0.06757754  0.73029809  0.21097760     0.29800
C733        C  0.09412166  0.69579529  0.16301832    -0.06400
C734        C  0.03162216  0.68537801  0.17878999    -0.07200
C735        C  0.07976168  0.66773534  0.21509920    -0.07100
C736        C  0.09206477  0.72717385  0.17927017    -0.06500
C737        C  0.02968515  0.71738328  0.19641740    -0.07200
C738        C  0.07818183  0.69921815  0.23209131    -0.07100
C739        C  0.09447055  0.75067932  0.15405314    -0.32500
N740        N  0.09944144  0.73483366  0.12408880     0.14000
C741        C  0.09651514  0.70185462  0.12921168    -0.32500
H742        H  0.08715692  0.68443226  0.11037793     0.15900
C743        C  0.49246462  0.72703303  0.19742720    -0.31500
N744        N  0.47168898  0.70343274  0.18079462     0.12700
C745        C  0.49529315  0.67827842  0.16932480    -0.31500
C746        C  0.06866286  0.69173107  0.26540055    -0.31800
N747        N  0.06763401  0.65770913  0.27035161     0.13200
H748        H  0.06134156  0.71029728  0.28482104     0.15900
C749        C  0.06974690  0.64383348  0.23892720    -0.31800
H750        H  0.06532448  0.61718136  0.23382464     0.15900
H751        H  0.48627027  0.65576440  0.15628739     0.15900
H752        H  0.08433243  0.77596901  0.15703350     0.15900
H753        H  0.48132733  0.74948186  0.20997868     0.15900
C754        C  0.07939816  0.81383148  0.26905200     0.86200
C755        C  0.10131347  0.83439619  0.24224720    -0.54000
C756        C  0.12452513  0.81629666  0.22156891     0.09200
C757        C  0.12113521  0.77654872  0.22933736     0.20100
C758        C  0.05725422  0.78647387  0.24887297    -0.54700
C759        C  0.07895821  0.76563903  0.22802221     0.09300
C760        C  0.10701233  0.79125395  0.28732345    -0.54300
C761        C  0.12997355  0.77298693  0.26759474     0.09800
H762        H  0.10062446  0.86187636  0.24187652     0.14400
H763        H  0.13915199  0.76051803  0.21275088     0.00100
H764        H  0.02832802  0.78147629  0.25350329     0.14700
H765        H  0.10776600  0.78896108  0.31469828     0.14400
C766        C  0.16641539  0.56773589  0.16179734     0.29800
C767        C  0.22840013  0.55036275  0.19656902     0.29800
C768        C  0.17042816  0.58374021  0.19581290    -0.06400
C769        C  0.17130963  0.52714033  0.17087623    -0.07200
C770        C  0.20430596  0.57767313  0.14509711    -0.07100
C771        C  0.19977448  0.57333401  0.21352812    -0.06500
C772        C  0.20347608  0.51969828  0.18917177    -0.07200
C773        C  0.23527172  0.56532103  0.16076856    -0.07100
C774        C  0.19151308  0.58014219  0.24649614    -0.32500
N775        N  0.16164384  0.60021230  0.24845712     0.14000
C776        C  0.14742411  0.60125840  0.21750459    -0.32500
H777        H  0.12069900  0.60948239  0.21186038     0.15900
C778        C  0.20322188  0.98577291  0.19819254    -0.31500
N779        N  0.17276114  0.96985555  0.18659134     0.12700
C780        C  0.15353270  0.49461640  0.16932749    -0.31500
C781        C  0.26592836  0.58083742  0.14591244    -0.31800
N782        N  0.25521230  0.60702680  0.12638484     0.13200
H783        H  0.29409437  0.57456530  0.15103893     0.15900
C784        C  0.21787688  0.60726250  0.13010285    -0.31800
H785        H  0.20208938  0.62998444  0.12880190     0.15900
H786        H  0.12872590  0.98949866  0.15582849     0.15900
H787        H  0.20440706  0.56792504  0.26730167     0.15900
H788        H  0.22493513  0.97305919  0.21126415     0.15900
C789        C  0.32824683  0.63850126  0.06070206     0.86200
C790        C  0.34500539  0.66381565  0.08540616    -0.54000
C791        C  0.32079644  0.67875109  0.10732914     0.09200
C792        C  0.27900566  0.66754912  0.09992072     0.20100
C793        C  0.30535789  0.61332251  0.08281086    -0.54700
C794        C  0.27908028  0.62791111  0.10383322     0.09300
C795        C  0.29825785  0.65693677  0.04116630    -0.54300
C796        C  0.27222553  0.67263026  0.06044934     0.09800
H797        H  0.37446265  0.66669097  0.08767625     0.14400
H798        H  0.25811511  0.68029153  0.11673234     0.00100
H799        H  0.30829465  0.58602053  0.08092819     0.14700
H800        H  0.29671279  0.65613051  0.01385213     0.14400
C801        C  0.11095271  0.59641427  0.33191460     0.86200
C802        C  0.07864268  0.61761079  0.31757370    -0.54000
C803        C  0.08999099  0.64234042  0.29556150     0.09200
C804        C  0.13140045  0.64362129  0.29027568     0.20100
C805        C  0.13404670  0.58452338  0.30096298    -0.54700
C806        C  0.14242773  0.60840225  0.27897543     0.09300
C807        C  0.13729722  0.62288157  0.34788703    -0.54300
C808        C  0.14769211  0.64800258  0.32587850     0.09800
H809        H  0.04988695  0.61144562  0.32181634     0.14400
H810        H  0.14049134  0.66183672  0.27066481     0.00100
H811        H  0.14333112  0.55865064  0.29610287     0.14700
H812        H  0.15163938  0.61945534  0.37107321     0.14400
C813        C  0.33147835  0.72025426  0.20691522     0.29800
C814        C  0.33400301  0.69479853  0.14170130     0.29800
C815        C  0.31751081  0.74352854  0.17955301    -0.06400
C816        C  0.37174423  0.71224450  0.19249873    -0.07200
C817        C  0.31305544  0.68682823  0.20105628    -0.07100
C818        C  0.31958204  0.73079852  0.14635519    -0.06500
C819        C  0.37356346  0.69855516  0.15875273    -0.07200
C820        C  0.31444323  0.67395653  0.16814933    -0.07100
C821        C  0.32893072  0.75811394  0.12641841    -0.32500
N822        N  0.32828846  0.78714036  0.14466305     0.14000
C823        C  0.32401573  0.77783092  0.17725557    -0.32500
H824        H  0.33009625  0.79424817  0.19839904     0.15900
C825        C  0.41152816  0.69328803  0.15152286    -0.31500
N826        N  0.43209614  0.70369887  0.17853907     0.12700
C827        C  0.40786759  0.71517985  0.20331471    -0.31500
C828        C  0.31823667  0.63944660  0.17052173    -0.31800
N829        N  0.31797549  0.63115616  0.20297573     0.13200
H830        H  0.32719007  0.62232368  0.15047079     0.15900
C831        C  0.31651054  0.65954142  0.22161110    -0.31800
H832        H  0.32684777  0.66081952  0.24660113     0.15900
H833        H  0.41592644  0.72483136  0.22769671     0.15900
H834        H  0.34007723  0.75670811  0.10081012     0.15900
H835        H  0.42323160  0.68332963  0.12796604     0.15900
C836        C  0.29789232  0.86508113  0.09695853     0.86200
C837        C  0.26719991  0.87396318  0.12247203    -0.54000
C838        C  0.25086656  0.84738544  0.13707118     0.09200
C839        C  0.26791741  0.81284789  0.12548235     0.20100
C840        C  0.32545811  0.84273190  0.11626793    -0.54700
C841        C  0.30898800  0.81576534  0.13190818     0.09300
C842        C  0.28205922  0.83900786  0.07158192    -0.54300
C843        C  0.26668490  0.81149333  0.08676966     0.09800
H844        H  0.25903288  0.89970375  0.12727717     0.14400
H845        H  0.25485961  0.79040365  0.13745173     0.00100
H846        H  0.35507820  0.84512379  0.11425799     0.14700
H847        H  0.28444794  0.84128335  0.04426399     0.14400
C848        C  0.32032968  0.54938045  0.24827081     0.86200
C849        C  0.28739437  0.53233504  0.22972746    -0.54000
C850        C  0.26210009  0.55551542  0.21901589     0.09200
C851        C  0.27117752  0.59263285  0.23050065     0.20100
C852        C  0.33430926  0.57615623  0.22329929    -0.54700
C853        C  0.30890808  0.59905734  0.21575483     0.09100
C854        C  0.30070669  0.56887839  0.27842913    -0.54300
C855        C  0.27571445  0.59231238  0.26896007     0.09800
H856        H  0.28346034  0.50555769  0.22563925     0.14400
H857        H  0.25202802  0.61285085  0.22263139     0.00100
H858        H  0.36288683  0.57895117  0.21507724     0.14700
H859        H  0.30809890  0.56608617  0.30466843     0.14400
C860        C  0.15577365  0.83396918  0.19887275     0.29800
C861        C  0.21694912  0.84947085  0.16011712     0.29800
C862        C  0.15540257  0.82228672  0.16182850    -0.06400
C863        C  0.16357975  0.87492366  0.19324438    -0.07200
C864        C  0.19367483  0.82027003  0.21030454    -0.07100
C865        C  0.18719234  0.82929321  0.14284149    -0.06500
C866        C  0.19528660  0.88123790  0.17239665    -0.07200
C867        C  0.22391697  0.83194616  0.19296583    -0.07100
C868        C  0.17788808  0.83105361  0.10955820    -0.32500
N869        N  0.14210624  0.82436284  0.10649361     0.14000
C870        C  0.12775142  0.82250103  0.13845702    -0.32500
H871        H  0.09874696  0.82521362  0.14431211     0.15900
C872        C  0.19870617  0.91577447  0.16691122    -0.31500
N873        N  0.17115436  0.93321636  0.18282270     0.12700
C874        C  0.14977694  0.90897695  0.19967314    -0.31500
C875        C  0.25474824  0.81752144  0.20577867    -0.31800
N876        N  0.24479754  0.79171901  0.22613063     0.13200
H877        H  0.28223557  0.82622349  0.20069787     0.15900
C878        C  0.20750411  0.79167085  0.22617299    -0.31800
H879        H  0.19217851  0.76986263  0.23237467     0.15900
H880        H  0.12610883  0.91526401  0.21573161     0.15900
H881        H  0.19541972  0.84015321  0.08923302     0.15900
H882        H  0.22035093  0.92850096  0.15320945     0.15900
C883        C  0.08343694  0.77942359  0.04241400     0.86200
C884        C  0.07379301  0.75594634  0.07228968    -0.54000
C885        C  0.10271485  0.74991301  0.09188652     0.09200
C886        C  0.13854482  0.76524522  0.07969726     0.20100
C887        C  0.10132093  0.81060666  0.06030307    -0.54700
C888        C  0.12994809  0.80280320  0.07961216     0.09300
C889        C  0.11518991  0.76060378  0.02255438    -0.54300
C890        C  0.14433863  0.75333964  0.04209275     0.09800
H891        H  0.04675630  0.74699844  0.07955149     0.14400
H892        H  0.16106633  0.75884433  0.09691447     0.00100
H893        H  0.08981579  0.83585638  0.06175668     0.14700
H894        H  0.11359294  0.75158920  0.99663997     0.14400
C895        C  0.31809936  0.77306464  0.29045983     0.86200
C896        C  0.33987001  0.75252683  0.26299030    -0.54000
C897        C  0.31828282  0.73317874  0.24287762     0.09200
C898        C  0.27572782  0.73638377  0.25403193     0.20100
C899        C  0.29188820  0.79365699  0.26862286    -0.54700
C900        C  0.26880051  0.77503528  0.24985127     0.09300
C901        C  0.29554347  0.74811781  0.31137473    -0.54300
C902        C  0.27191290  0.72983102  0.29413591     0.09800
H903        H  0.36839321  0.75742876  0.25631264     0.14400
H904        H  0.25709164  0.72073488  0.23864046     0.00100
H905        H  0.29251616  0.82113038  0.26727075     0.14700
H906        H  0.29621438  0.74711876  0.33882343     0.14400
C907        C  0.23909387  0.69151729  0.04450398     0.29800
C908        C  0.17768002  0.73062229  0.03370617     0.29800
C909        C  0.24021397  0.72860729  0.05608921    -0.06400
C910        C  0.22886850  0.69631659  0.00510432    -0.07200
C911        C  0.20239661  0.67869722  0.05972018    -0.07100
C912        C  0.21031923  0.74813451  0.04907475    -0.06500
C913        C  0.19655156  0.71623831  0.00028662    -0.07200
C914        C  0.17220818  0.69850810  0.05447899    -0.07100
C915        C  0.21918611  0.78144817  0.05493357    -0.32500
N916        N  0.25266912  0.78269251  0.06852526     0.14000
C917        C  0.26617730  0.75046518  0.06822876    -0.32500
H918        H  0.29332238  0.74306455  0.07428112     0.15900
C919        C  0.19238246  0.71909894  0.46535620    -0.31500
N920        N  0.22036836  0.70283350  0.44779380     0.12700
C921        C  0.24254193  0.68838289  0.47158285    -0.31500
C922        C  0.14183825  0.68144312  0.06698556    -0.31800
N923        N  0.15251402  0.65308800  0.08317007     0.13200
H924        H  0.11380110  0.68852613  0.06247574     0.15900
C925        C  0.18878807  0.64917399  0.07389839    -0.31800
H926        H  0.20362803  0.62556006  0.07365248     0.15900
H927        H  0.26652232  0.67315243  0.46510646     0.15900
H928        H  0.20233168  0.80302193  0.04926259     0.15900
H929        H  0.17021216  0.73249525  0.45362570     0.15900
C930        C  0.24167151  0.70927463  0.31358619     0.29800
C931        C  0.18173427  0.66983013  0.32787676     0.29800
C932        C  0.24320592  0.67294767  0.29985204    -0.06400
C933        C  0.23294088  0.70288234  0.35372716    -0.07200
C934        C  0.20450651  0.72292321  0.30280878    -0.07100
C935        C  0.21318033  0.65299761  0.30717841    -0.06500
C936        C  0.20150257  0.68230096  0.35997518    -0.07200
C937        C  0.17476376  0.70310434  0.30967346    -0.07100
C938        C  0.22490553  0.61969854  0.30354687    -0.32500
N939        N  0.26007245  0.61858961  0.29132455     0.14000
C940        C  0.27204316  0.65104960  0.29220977    -0.32500
H941        H  0.30048064  0.65798334  0.29252531     0.15900
C942        C  0.19522209  0.67978001  0.39474703    -0.31500
N943        N  0.22146735  0.69710738  0.41154162     0.12700
C944        C  0.24433279  0.71161659  0.38703558    -0.31500
C945        C  0.14429210  0.72015103  0.29865260    -0.31800
N946        N  0.15478105  0.74886805  0.28288191     0.13200
H947        H  0.11650845  0.71302933  0.30402030     0.15900
C948        C  0.19098137  0.75266219  0.28980684    -0.31800
H949        H  0.20615874  0.77590243  0.28745353     0.15900
H950        H  0.26684137  0.72829557  0.39278309     0.15900
H951        H  0.20956705  0.59788434  0.31188270     0.15900
H952        H  0.17239331  0.66692450  0.40701994     0.15900
N953        N  0.50475437  0.51675650  0.46183387    -0.06400
N954        N  0.49463728  0.54193169  0.48241706    -0.58500
N955        N  0.04803375  0.95849851  0.41533178    -0.06000
N956        N  0.08182415  0.95446945  0.40280423    -0.60600
N957        N  0.52876832  0.47744758  0.39565353    -0.05600
N958        N  0.54795963  0.48511844  0.36860929    -0.58500
N959        N  0.02168357  0.99336916  0.47911234    -0.05300
N960        N  0.02372575  0.00205778  0.51099699    -0.61000
C961        C  0.00664600  0.53220272  0.01297008     0.95800
C962        C  0.08165061  0.47201628  0.37358522     0.95600
N963        N  0.49000494  0.87526127  0.44025644    -0.06600
N964        N  0.49079576  0.85591771  0.41245544    -0.59100
N965        N  0.00101598  0.92554016  0.51073396    -0.04700
N966        N  0.02201060  0.91483077  0.53496827    -0.60300
N967        N  0.47011120  0.90882121  0.51157000    -0.06600
N968        N  0.47011413  0.88692611  0.53621046    -0.59300
N969        N  0.02134995  0.89149074  0.44226636    -0.04300
N970        N  0.04364194  0.88282494  0.41705938    -0.60400
Mn971      Mn  0.02422270  0.94214376  0.46268769     1.18400
C972        C  0.02489035  0.86069934  0.39844408     0.97900
C973        C  0.00462461  0.88721361  0.04649095     0.98600
N974        N  0.45212853  0.48756844  0.36691972    -0.06600
N975        N  0.46003837  0.49303383  0.33470214    -0.62900
N976        N  0.40000086  0.01433081  0.43346057    -0.05400
N977        N  0.37592514  0.03379666  0.44991489    -0.63600
N978        N  0.43122663  0.53017881  0.42944004    -0.06100
N979        N  0.42927670  0.56080938  0.44259935    -0.63200
N980        N  0.42050505  0.97210661  0.37010389    -0.05000
N981        N  0.40644078  0.46661296  0.34035964    -0.63900
Mn982      Mn  0.48025174  0.50420678  0.41251219     1.10700
C983        C  0.43060060  0.48085960  0.31825370     0.99100
C984        C  0.39525606  0.56377623  0.95494417     0.99200
N985        N  0.39364292  0.92575631  0.48781235    -0.06100
N986        N  0.38320298  0.92754470  0.51981283    -0.61500
N987        N  0.39490621  0.90880995  0.40528295    -0.05400
N988        N  0.38063250  0.89537597  0.37830675    -0.58200
N989        N  0.41019971  0.88548599  0.42334452    -0.06700
N990        N  0.40587159  0.85529758  0.40998545    -0.61100
N991        N  0.37671627  0.94903149  0.47045337    -0.05700
N992        N  0.35384509  0.96673989  0.49026454    -0.58200
Mn993      Mn  0.44044918  0.89745299  0.46654895     1.20200
Mn994      Mn  0.39614689  0.96121271  0.41943158     1.10100
Cl995      Cl  0.46007452  0.95144677  0.44042917    -0.86200
C996        C  0.35888567  0.95355235  0.02072339     0.96100
C997        C  0.38752313  0.86207326  0.38190907     0.95900
C998        C  0.31533763  0.81946744  0.33405819    -0.02100
C999        C  0.33709333  0.79498842  0.31541212     0.07600
C1000       C  0.37190345  0.78596952  0.32775926    -0.02200
C1001       C  0.38846405  0.80745390  0.35098879    -0.02200
C1002       C  0.36939936  0.83657809  0.36259942     0.07700
C1003       C  0.33212950  0.84128475  0.35631872    -0.02400
Br1004     Br  0.30279797  0.87573398  0.38036954    -0.01000
Br1005     Br  0.26165603  0.82092216  0.33440138    -0.01000
Br1006     Br  0.43646253  0.79601954  0.36738412    -0.01000
Br1007     Br  0.39440750  0.74200968  0.31906643    -0.01000
C1008       C  0.00480108  0.82459419  0.05164883    -0.02100
C1009       C  0.02283686  0.85408589  0.03971454     0.07600
C1010       C  0.05005216  0.85021410  0.01277293    -0.02200
C1011       C  0.05909113  0.81749496  0.00071771    -0.02200
C1012       C  0.05071550  0.79029678  0.02181248     0.07700
C1013       C  0.01687496  0.79281163  0.03965626    -0.02400
Br1014     Br  0.98569668  0.75370715  0.04291192    -0.01000
Br1015     Br  0.96369535  0.82708513  0.08371688    -0.01000
Br1016     Br  0.09225204  0.81036055  0.96260808    -0.01000
Br1017     Br  0.08274325  0.88619845  0.49796582    -0.01000
C1018       C  0.41164024  0.53454886  0.29189219    -0.02100
C1019       C  0.41461303  0.49902039  0.29001157     0.07600
C1020       C  0.39247724  0.48081602  0.26768838    -0.02200
C1021       C  0.36433954  0.49734536  0.25064145    -0.02200
C1022       C  0.35472950  0.53106154  0.26000980     0.07700
C1023       C  0.38112120  0.55046682  0.27827510    -0.02400
Br1024     Br  0.37749794  0.59953796  0.28516031    -0.01000
Br1025     Br  0.44771294  0.56208253  0.31462449    -0.01000
Br1026     Br  0.34607110  0.47536404  0.21080247    -0.01000
Br1027     Br  0.40020966  0.93271886  0.26152316    -0.01000
C1028       C  0.33760667  0.91884150  0.09630839    -0.02100
C1029       C  0.30989512  0.89847464  0.08156180     0.07600
C1030       C  0.28630383  0.91499011  0.05832406    -0.02200
C1031       C  0.29801085  0.94495155  0.04285094    -0.02200
C1032       C  0.33301919  0.95680472  0.04929507     0.07700
C1033       C  0.34806657  0.94891949  0.08029341    -0.02400
Br1034     Br  0.38735013  0.97649606  0.09640844    -0.01000
Br1035     Br  0.35928959  0.90949707  0.13924637    -0.01000
Br1036     Br  0.26851137  0.96813055  0.51081550    -0.01000
Br1037     Br  0.23700083  0.89984361  0.04898066    -0.01000
C1038       C  0.11478192  0.55338689  0.38054858    -0.02100
C1039       C  0.10010654  0.56316342  0.34926887     0.07600
C1040       C  0.08854211  0.53670796  0.32703900    -0.02200
C1041       C  0.10477062  0.50469772  0.32978299    -0.02200
C1042       C  0.11181850  0.49394602  0.36237819     0.07700
C1043       C  0.12192395  0.51869206  0.38640943    -0.02400
Br1044     Br  0.14322959  0.50428774  0.42785059    -0.01000
Br1045     Br  0.11604791  0.58476309  0.41822497    -0.01000
Br1046     Br  0.10104239  0.47095449  0.29439282    -0.01000
Br1047     Br  0.05753928  0.54509631  0.28908962    -0.01000
C1048       C  0.37438750  0.59205293  0.04404030    -0.02100
C1049       C  0.35775152  0.62343798  0.03726742     0.07600
C1050       C  0.36753445  0.63970016  0.00649304    -0.02200
C1051       C  0.38042894  0.62001811  0.97904997    -0.02200
C1052       C  0.38689843  0.58550034  0.98387397     0.07700
C1053       C  0.38827037  0.57250160  0.01682523    -0.02400
Br1054     Br  0.41039504  0.02902554  0.02465456    -0.01000
Br1055     Br  0.38318507  0.57844370  0.08994254    -0.01000
Br1056     Br  0.38620237  0.63822314  0.43437012    -0.01000
Br1057     Br  0.36491632  0.68840799  0.00202806    -0.01000
C1058       C  0.07483032  0.85388441  0.35451506    -0.02100
C1059       C  0.03674954  0.85414071  0.36257589     0.07600
C1060       C  0.01227217  0.85435632  0.33524606    -0.02200
C1061       C  0.02483985  0.84340176  0.30254297    -0.02200
C1062       C  0.06262765  0.83745681  0.29665717     0.07700
C1063       C  0.08688132  0.85107111  0.32081665    -0.02400
Br1064     Br  0.13801475  0.86107792  0.30953525    -0.01000
Br1065     Br  0.11198903  0.85521478  0.38857679    -0.01000
Br1066     Br  0.99311939  0.84557139  0.26454172    -0.01000
Br1067     Br  0.46572047  0.87721759  0.34014388    -0.01000
C1068       C  0.00771364  0.53217334  0.07513448    -0.02100
C1069       C  0.00186792  0.55032049  0.04516891     0.07600
C1070       C  0.00461021  0.58560225  0.04583207    -0.02200
C1071       C  0.02512272  0.60049717  0.07122899    -0.02200
C1072       C  0.04373839  0.57907991  0.09416397     0.07700
C1073       C  0.02893815  0.54683902  0.10020355    -0.02400
Br1074     Br  0.03271588  0.52519774  0.14351383    -0.01000
Br1075     Br  0.98913857  0.98685401  0.08060087    -0.01000
Br1076     Br  0.02813606  0.64955621  0.07290632    -0.01000
Br1077     Br  0.98480744  0.61291265  0.51029122    -0.01000
C1078       C  0.07623934  0.59245901  0.61275842     0.86200
C1079       C  0.10437134  0.56856384  0.62975745    -0.54000
C1080       C  0.13229226  0.58529819  0.64535960     0.09200
C1081       C  0.12718009  0.62548570  0.64275148     0.20100
C1082       C  0.06112938  0.61605359  0.64057969    -0.54700
C1083       C  0.08573765  0.63485202  0.65653379     0.09300
C1084       C  0.10127161  0.61313494  0.58847402    -0.54300
C1085       C  0.12828693  0.63058320  0.60318848     0.09800
H1086       H  0.10419549  0.54123188  0.62724845     0.14400
H1087       H  0.14831722  0.64051320  0.65571785     0.00100
H1088       H  0.03194149  0.61910987  0.64559107     0.14700
H1089       H  0.09808367  0.61362066  0.56123833     0.14400
C1090       C  0.07179447  0.66762887  0.67735982     0.29800
C1091       C  0.06781919  0.73021685  0.71086210     0.29800
C1092       C  0.09443650  0.69566209  0.66297708    -0.06400
C1093       C  0.03186205  0.68534664  0.67862365    -0.07200
C1094       C  0.07989299  0.66764144  0.71502580    -0.07100
C1095       C  0.09238802  0.72703922  0.67921755    -0.06500
C1096       C  0.02993947  0.71735343  0.69624078    -0.07200
C1097       C  0.07833310  0.69913494  0.73200573    -0.07100
C1098       C  0.09495795  0.75054215  0.65401679    -0.32500
N1099       N  0.10005786  0.73469445  0.62407154     0.14000
C1100       C  0.09699232  0.70172233  0.62918048    -0.32500
H1101       H  0.08758119  0.68434697  0.61033314     0.15900
C1102       C  0.49270672  0.72697730  0.69732080    -0.31500
N1103       N  0.47191444  0.70336324  0.68072414     0.12700
C1104       C  0.49551676  0.67822278  0.66922509    -0.31500
C1105       C  0.06875863  0.69168080  0.76530663    -0.31800
N1106       N  0.06768469  0.65766419  0.77027531     0.13200
H1107       H  0.06144220  0.71026545  0.78471108     0.15900
C1108       C  0.06981305  0.64376593  0.73885887    -0.31800
H1109       H  0.06538607  0.61711074  0.73376948     0.15900
H1110       H  0.48646975  0.65568714  0.65624415     0.15900
H1111       H  0.08482808  0.77583356  0.65696593     0.15900
H1112       H  0.48157114  0.74940097  0.70992202     0.15900
C1113       C  0.07964015  0.81383032  0.76880390     0.86200
C1114       C  0.10156015  0.83432893  0.74197675    -0.54000
C1115       C  0.12478145  0.81618691  0.72137131     0.09200
C1116       C  0.12137793  0.77645963  0.72919902     0.20100
C1117       C  0.05749626  0.78643324  0.74867776    -0.54700
C1118       C  0.07920489  0.76556055  0.72787916     0.09300
C1119       C  0.10722423  0.79128675  0.78714848    -0.54300
C1120       C  0.13018118  0.77296647  0.76746266     0.09800
H1121       H  0.10088090  0.86180670  0.74155151     0.14400
H1122       H  0.13939819  0.76039767  0.71265100     0.00100
H1123       H  0.02857529  0.78143033  0.75330838     0.14700
H1124       H  0.10795148  0.78905710  0.81452933     0.14400
C1125       C  0.16646727  0.56755701  0.66177700     0.29800
C1126       C  0.22843018  0.55023026  0.69663366     0.29800
C1127       C  0.17046749  0.58362471  0.69576949    -0.06400
C1128       C  0.17135446  0.52698400  0.67091913    -0.07200
C1129       C  0.20438961  0.57744774  0.64508543    -0.07100
C1130       C  0.19980798  0.57325907  0.71350978    -0.06500
C1131       C  0.20349402  0.51957025  0.68926867    -0.07200
C1132       C  0.23533998  0.56511046  0.66081494    -0.07100
C1133       C  0.19159174  0.58022438  0.74644551    -0.32500
N1134       N  0.16175542  0.60033446  0.74836155     0.14000
C1135       C  0.14750374  0.60125512  0.71741352    -0.32500
H1136       H  0.12076625  0.60945407  0.71176081     0.15900
C1137       C  0.20328422  0.98563929  0.69825130    -0.31500
N1138       N  0.17288947  0.96969216  0.68655874     0.12700
C1139       C  0.15364808  0.49443821  0.66928987    -0.31500
C1140       C  0.26602265  0.58061282  0.64600860    -0.31800
N1141       N  0.25534296  0.60678734  0.62645469     0.13200
H1142       H  0.29417435  0.57435669  0.65120159     0.15900
C1143       C  0.21800084  0.60702305  0.63009080    -0.31800
H1144       H  0.20222674  0.62974793  0.62874415     0.15900
H1145       H  0.12890456  0.98928842  0.65571010     0.15900
H1146       H  0.20445974  0.56803573  0.76727726     0.15900
H1147       H  0.22500459  0.97293645  0.71132325     0.15900
C1148       C  0.32836626  0.63821693  0.56076426     0.86200
C1149       C  0.34515009  0.66358123  0.58542145    -0.54000
C1150       C  0.32096202  0.67850958  0.60738727     0.09200
C1151       C  0.27916227  0.66729391  0.59999877     0.20100
C1152       C  0.30554915  0.61305197  0.58294358    -0.54700
C1153       C  0.27925523  0.62765720  0.60394269     0.09300
C1154       C  0.29830813  0.65656254  0.54125462    -0.54300
C1155       C  0.27234725  0.67232072  0.56052082     0.09800
H1156       H  0.37460815  0.66647162  0.58764826     0.14400
H1157       H  0.25827356  0.68004662  0.61680605     0.00100
H1158       H  0.30855666  0.58575201  0.58112180     0.14700
H1159       H  0.29659904  0.65560068  0.51396173     0.14400
C1160       C  0.11102567  0.59633463  0.83176732     0.86200
C1161       C  0.07869850  0.61752599  0.81745497    -0.54000
C1162       C  0.09002936  0.64231113  0.79549883     0.09200
C1163       C  0.13143818  0.64365734  0.79024814     0.20100
C1164       C  0.13415908  0.58454965  0.80081446    -0.54700
C1165       C  0.14251714  0.60847496  0.77888091     0.09300
C1166       C  0.13731531  0.62281004  0.84782396    -0.54300
C1167       C  0.14768450  0.64800800  0.82588172     0.09800
H1168       H  0.04994860  0.61131797  0.82166219     0.14400
H1169       H  0.14051276  0.66189918  0.77066015     0.00100
H1170       H  0.14349122  0.55869764  0.79590686     0.14700
H1171       H  0.15161288  0.61936982  0.87103570     0.14400
C1172       C  0.33169724  0.72008762  0.70700390     0.29800
C1173       C  0.33419563  0.69457235  0.64177423     0.29800
C1174       C  0.31774698  0.74334343  0.67961651    -0.06400
C1175       C  0.37195835  0.71204106  0.69257272    -0.07200
C1176       C  0.31323945  0.68667986  0.70114878    -0.07100
C1177       C  0.31981500  0.73058885  0.64641938    -0.06500
C1178       C  0.37375752  0.69832901  0.65882781    -0.07200
C1179       C  0.31461815  0.67377518  0.66825011    -0.07100
C1180       C  0.32920876  0.75788412  0.62647376    -0.32500
N1181       N  0.32857314  0.78691995  0.64469796     0.14000
C1182       C  0.32427343  0.77763856  0.67729655    -0.32500
H1183       H  0.33035596  0.79406809  0.69843012     0.15900
C1184       C  0.41172039  0.69311945  0.65155483    -0.31500
N1185       N  0.43231311  0.70357961  0.67853548     0.12700
C1186       C  0.40810015  0.71504385  0.70333653    -0.31500
C1187       C  0.31833243  0.63926304  0.67066441    -0.31800
N1188       N  0.31800497  0.63101412  0.70313319     0.13200
H1189       H  0.32727033  0.62210300  0.65064317     0.15900
C1190       C  0.31660476  0.65941628  0.72173802    -0.31800
H1191       H  0.32692038  0.66070264  0.74673451     0.15900
H1192       H  0.41617790  0.72475174  0.72768993     0.15900
H1193       H  0.34032006  0.75646288  0.60084871     0.15900
H1194       H  0.42340651  0.68318201  0.62798066     0.15900
C1195       C  0.29817586  0.86478409  0.59688058     0.86200
C1196       C  0.26752261  0.87372667  0.62242221    -0.54000
C1197       C  0.25120232  0.84718976  0.63707560     0.09200
C1198       C  0.26820692  0.81261713  0.62552721     0.20100
C1199       C  0.32575418  0.84244429  0.61618423    -0.54700
C1200       C  0.30928225  0.81552958  0.63190941     0.09300
C1201       C  0.28229544  0.83867388  0.57156539    -0.54300
C1202       C  0.26692978  0.81118539  0.58681449     0.09800
H1203       H  0.25932437  0.89947553  0.62720131     0.14400
H1204       H  0.25514837  0.79020333  0.63754826     0.00100
H1205       H  0.35537612  0.84476194  0.61407624     0.14700
H1206       H  0.28466376  0.84089899  0.54423882     0.14400
C1207       C  0.32029364  0.54926045  0.74849181     0.86200
C1208       C  0.28742403  0.53220663  0.72984248    -0.54000
C1209       C  0.26212293  0.55538637  0.71911079     0.09200
C1210       C  0.27117377  0.59250854  0.73062927     0.20100
C1211       C  0.33430777  0.57607112  0.72356950    -0.54700
C1212       C  0.30892133  0.59894106  0.71595607     0.09100
C1213       C  0.30052964  0.56868383  0.77861715    -0.54300
C1214       C  0.27562441  0.59217326  0.76910401     0.09800
H1215       H  0.28350673  0.50543437  0.72572997     0.14400
H1216       H  0.25205707  0.61273916  0.72272756     0.00100
H1217       H  0.36290363  0.57891089  0.71541828     0.14700
H1218       H  0.30781226  0.56583868  0.80487844     0.14400
C1219       C  0.15605962  0.83382974  0.69873774     0.29800
C1220       C  0.21727872  0.84934296  0.66008852     0.29800
C1221       C  0.15575815  0.82213869  0.66171087    -0.06400
C1222       C  0.16384195  0.87477598  0.69311953    -0.07200
C1223       C  0.19392988  0.82014034  0.71024091    -0.07100
C1224       C  0.18757657  0.82914886  0.64277838    -0.06500
C1225       C  0.19557792  0.88111136  0.67232191    -0.07200
C1226       C  0.22419412  0.83184348  0.69295353    -0.07100
C1227       C  0.17836129  0.83087530  0.60947781    -0.32500
N1228       N  0.14259609  0.82418755  0.60637144     0.14000
C1229       C  0.12816100  0.82235562  0.63830008    -0.32500
H1230       H  0.09914239  0.82506459  0.64409262     0.15900
C1231       C  0.19897566  0.91565518  0.66686045    -0.31500
N1232       N  0.17136137  0.93306031  0.68273808     0.12700
C1233       C  0.14998137  0.90879946  0.69953927    -0.31500
C1234       C  0.25499494  0.81734553  0.70571716    -0.31800
N1235       N  0.24501429  0.79148342  0.72597551     0.13200
H1236       H  0.28249074  0.82605153  0.70067931     0.15900
C1237       C  0.20772709  0.79147061  0.72601851    -0.31800
H1238       H  0.19239336  0.76965900  0.73220953     0.15900
H1239       H  0.12627695  0.91505833  0.71556252     0.15900
H1240       H  0.19593620  0.83992733  0.58916211     0.15900
H1241       H  0.22065779  0.92839066  0.65320626     0.15900
C1242       C  0.08377117  0.77933064  0.54248364     0.86200
C1243       C  0.07423796  0.75584911  0.57238647    -0.54000
C1244       C  0.10322778  0.74978129  0.59187224     0.09200
C1245       C  0.13901256  0.76508522  0.57957259     0.20100
C1246       C  0.10178460  0.81047471  0.56028981    -0.54700
C1247       C  0.13046538  0.80265164  0.57948478     0.09300
C1248       C  0.11542891  0.76046891  0.52250188    -0.54300
C1249       C  0.14464900  0.75315284  0.54196133     0.09800
H1250       H  0.04723261  0.74690697  0.57975482     0.14400
H1251       H  0.16157132  0.75867184  0.59674148     0.00100
H1252       H  0.09030482  0.83573093  0.56184263     0.14700
H1253       H  0.11371827  0.75147917  0.49658601     0.14400
C1254       C  0.31816699  0.77310819  0.79045441     0.86200
C1255       C  0.34001132  0.75246707  0.76308247    -0.54000
C1256       C  0.31847795  0.73303400  0.74298176     0.09200
C1257       C  0.27590798  0.73623419  0.75409039     0.20100
C1258       C  0.29199842  0.79356741  0.76849195    -0.54700
C1259       C  0.26896140  0.77486627  0.74977108     0.09300
C1260       C  0.29557482  0.74823596  0.81144343    -0.54300
C1261       C  0.27202686  0.72980638  0.79422199     0.09800
H1262       H  0.36854266  0.75736284  0.75643422     0.14400
H1263       H  0.25730648  0.72052395  0.73872609     0.00100
H1264       H  0.29262097  0.82103436  0.76700976     0.14700
H1265       H  0.29616713  0.74738697  0.83890343     0.14400
C1266       C  0.23927021  0.69120615  0.54449511     0.29800
C1267       C  0.17793482  0.73036410  0.53356198     0.29800
C1268       C  0.24042682  0.72830122  0.55603952    -0.06400
C1269       C  0.22910709  0.69597278  0.50505511    -0.07200
C1270       C  0.20255421  0.67843435  0.55967130    -0.07100
C1271       C  0.21060782  0.74786293  0.54890963    -0.06500
C1272       C  0.19682097  0.71592664  0.50018540    -0.07200
C1273       C  0.17239329  0.69825897  0.55436505    -0.07100
C1274       C  0.21949439  0.78116685  0.55483947    -0.32500
N1275       N  0.25288545  0.78235541  0.56862129     0.14000
C1276       C  0.26633050  0.75010579  0.56837709    -0.32500
H1277       H  0.29339464  0.74264126  0.57462462     0.15900
C1278       C  0.19206920  0.71940022  0.96545533    -0.31500
N1279       N  0.22006479  0.70316359  0.94786840     0.12700
C1280       C  0.24228111  0.68874455  0.97163258    -0.31500
C1281       C  0.14199340  0.68118295  0.56681281    -0.31800
N1282       N  0.15263817  0.65282572  0.58302640     0.13200
H1283       H  0.11396242  0.68828756  0.56229008     0.15900
C1284       C  0.18892444  0.64891133  0.57382529    -0.31800
H1285       H  0.20376452  0.62530043  0.57361756     0.15900
H1286       H  0.26627569  0.67353492  0.96513614     0.15900
H1287       H  0.20269381  0.80276603  0.54913829     0.15900
H1288       H  0.16986600  0.73276747  0.95374244     0.15900
C1289       C  0.24174161  0.70925986  0.81367231     0.29800
C1290       C  0.18172760  0.66985145  0.82793295     0.29800
C1291       C  0.24329111  0.67287548  0.80006077    -0.06400
C1292       C  0.23285520  0.70300250  0.85381422    -0.07200
C1293       C  0.20461353  0.72286297  0.80275013    -0.07100
C1294       C  0.21323673  0.65296126  0.80737884    -0.06500
C1295       C  0.20138830  0.68244042  0.86004531    -0.07200
C1296       C  0.17483690  0.70307487  0.80961236    -0.07100
C1297       C  0.22487488  0.61964491  0.80369976    -0.32500
N1298       N  0.26002901  0.61849132  0.79145034     0.14000
C1299       C  0.27207617  0.65093336  0.79236436    -0.32500
H1300       H  0.30052880  0.65782088  0.79262622     0.15900
C1301       C  0.19498236  0.68004748  0.89481131    -0.31500
N1302       N  0.22117252  0.69743514  0.91161760     0.12700
C1303       C  0.24413611  0.71184524  0.88712798    -0.31500
C1304       C  0.14439282  0.72015464  0.79858151    -0.31800
N1305       N  0.15493517  0.74884110  0.78279044     0.13200
H1306       H  0.11659096  0.71307933  0.80394995     0.15900
C1307       C  0.19113456  0.75260237  0.78971396    -0.31800
H1308       H  0.20633429  0.77583038  0.78734795     0.15900
H1309       H  0.26665203  0.72850833  0.89288439     0.15900
H1310       H  0.20947438  0.59784586  0.81197267     0.15900
H1311       H  0.17212956  0.66720318  0.90706469     0.15900
N1312       N  0.50528154  0.51723529  0.96178816    -0.06400
N1313       N  0.49506722  0.54229936  0.98246802    -0.58500
N1314       N  0.04841974  0.95898112  0.91513522    -0.06000
N1315       N  0.08206650  0.95456215  0.90239722    -0.60600
N1316       N  0.52920714  0.47802496  0.89551048    -0.05600
N1317       N  0.54825813  0.48537030  0.86829511    -0.58500
N1318       N  0.02211299  0.99374041  0.97901252    -0.05300
N1319       N  0.02398220  0.00225570  0.01095640    -0.61000
C1320       C  0.00640518  0.53201563  0.51291789     0.95800
C1321       C  0.08186812  0.47201397  0.87312148     0.95600
N1322       N  0.49014925  0.87586998  0.93965947    -0.06600
N1323       N  0.49091454  0.85659355  0.91181920    -0.59100
N1324       N  0.00118891  0.92579141  0.01034763    -0.04700
N1325       N  0.02205519  0.91483755  0.03457162    -0.60300
N1326       N  0.47019395  0.90921768  0.01103611    -0.06600
N1327       N  0.46998448  0.88721615  0.03557843    -0.59300
N1328       N  0.02152861  0.89202188  0.94174770    -0.04300
N1329       N  0.04381639  0.88339217  0.91652835    -0.60400
Mn1330     Mn  0.02453718  0.94255932  0.96240345     1.18400
C1331       C  0.02502757  0.86134449  0.89785833     0.97900
C1332       C  0.00479217  0.88717244  0.54705229     0.98600
N1333       N  0.45271441  0.48857303  0.86669509    -0.06600
N1334       N  0.46076397  0.49395271  0.83448144    -0.62900
N1335       N  0.40057971  0.01525809  0.93324350    -0.05400
N1336       N  0.37648568  0.03479790  0.94958446    -0.63600
N1337       N  0.43185853  0.53104438  0.92933288    -0.06100
N1338       N  0.42993130  0.56168687  0.94248644    -0.63200
N1339       N  0.42109267  0.97309429  0.86980537    -0.05000
N1340       N  0.40720403  0.46744534  0.84001869    -0.63900
Mn1341     Mn  0.48082164  0.50496036  0.91238827     1.10700
C1342       C  0.43143488  0.48164734  0.81795231     0.99100
C1343       C  0.39465109  0.56280846  0.45517519     0.99200
N1344       N  0.39392181  0.92631935  0.98725475    -0.06100
N1345       N  0.38344284  0.92781002  0.01924652    -0.61500
N1346       N  0.39512751  0.90974451  0.90469359    -0.05400
N1347       N  0.38065858  0.89636086  0.87776987    -0.58200
N1348       N  0.41041879  0.88635494  0.92267210    -0.06700
N1349       N  0.40590793  0.85619580  0.90932407    -0.61100
N1350       N  0.37705309  0.94976310  0.97007028    -0.05700
N1351       N  0.35414541  0.96729594  0.99001715    -0.58200
Mn1352     Mn  0.44064631  0.89808490  0.96592674     1.20200
Mn1353     Mn  0.39656928  0.96213811  0.91906129     1.10100
Cl1354     Cl  0.46044429  0.95213920  0.94008576    -0.86200
C1355       C  0.35863023  0.95329921  0.52108268     0.96100
C1356       C  0.38746164  0.86302541  0.88132250     0.95900
C1357       C  0.31532702  0.81995953  0.83362997    -0.02100
C1358       C  0.33708065  0.79526360  0.81528334     0.07600
C1359       C  0.37189143  0.78643974  0.82771109    -0.02200
C1360       C  0.38842749  0.80818876  0.85071954    -0.02200
C1361       C  0.36939547  0.83749416  0.86195413     0.07700
C1362       C  0.33213697  0.84213901  0.85554404    -0.02400
Br1363     Br  0.30278090  0.87692916  0.87904455    -0.01000
Br1364     Br  0.26163980  0.82129166  0.83402918    -0.01000
Br1365     Br  0.43633491  0.79679822  0.86736181    -0.01000
Br1366     Br  0.39442462  0.74242902  0.81941116    -0.01000
C1367       C  0.00537244  0.82462133  0.55245962    -0.02100
C1368       C  0.02320881  0.85412816  0.54035425     0.07600
C1369       C  0.05023599  0.85029875  0.51325331    -0.02200
C1370       C  0.05918579  0.81759402  0.50107141    -0.02200
C1371       C  0.05091424  0.79032778  0.52211642     0.07700
C1372       C  0.01723103  0.79286556  0.54022245    -0.02400
Br1373     Br  0.98596822  0.75383687  0.54361438    -0.01000
Br1374     Br  0.96485803  0.82709505  0.58515312    -0.01000
Br1375     Br  0.09221028  0.81053066  0.46287404    -0.01000
Br1376     Br  0.08254750  0.88608404  0.99740581    -0.01000
C1377       C  0.41202098  0.53512842  0.79166837    -0.02100
C1378       C  0.41547716  0.49966501  0.78961532     0.07600
C1379       C  0.39341321  0.48129378  0.76737298    -0.02200
C1380       C  0.36480366  0.49752256  0.75067979    -0.02200
C1381       C  0.35479736  0.53110790  0.76026360     0.07700
C1382       C  0.38106462  0.55072168  0.77850831    -0.02400
Br1383     Br  0.37675891  0.59968666  0.78593922    -0.01000
Br1384     Br  0.44814466  0.56295007  0.81398322    -0.01000
Br1385     Br  0.34613860  0.47521669  0.71118000    -0.01000
Br1386     Br  0.40193538  0.93334196  0.76089725    -0.01000
C1387       C  0.33771377  0.91865360  0.59631734    -0.02100
C1388       C  0.31011779  0.89818654  0.58147435     0.07600
C1389       C  0.28637182  0.91470836  0.55834834    -0.02200
C1390       C  0.29779754  0.94489296  0.54314080    -0.02200
C1391       C  0.33273714  0.95687673  0.54960382     0.07700
C1392       C  0.34772726  0.94901873  0.58061105    -0.02400
Br1393     Br  0.38633722  0.97715084  0.59712952    -0.01000
Br1394     Br  0.35991663  0.90904338  0.63895704    -0.01000
Br1395     Br  0.26894925  0.96803200  0.01024504    -0.01000
Br1396     Br  0.23716329  0.89935889  0.54890086    -0.01000
C1397       C  0.11506957  0.55310433  0.88015257    -0.02100
C1398       C  0.10023636  0.56299424  0.84898225     0.07600
C1399       C  0.08868457  0.53661008  0.82664352    -0.02200
C1400       C  0.10493199  0.50457708  0.82923070    -0.02200
C1401       C  0.11214535  0.49374247  0.86176729     0.07700
C1402       C  0.12245435  0.51841646  0.88578230    -0.02400
Br1403     Br  0.14421539  0.50388569  0.92696764    -0.01000
Br1404     Br  0.11616818  0.58425508  0.91801930    -0.01000
Br1405     Br  0.10078828  0.47085933  0.79386353    -0.01000
Br1406     Br  0.05761494  0.54514189  0.78877512    -0.01000
C1407       C  0.37456022  0.59183237  0.54418351    -0.02100
C1408       C  0.35779710  0.62312107  0.53727283     0.07600
C1409       C  0.36708648  0.63905297  0.50620310    -0.02200
C1410       C  0.37960643  0.61909895  0.47883674    -0.02200
C1411       C  0.38630900  0.58468016  0.48396854     0.07700
C1412       C  0.38812597  0.57201787  0.51702609    -0.02400
Br1413     Br  0.41028739  0.02860055  0.52504291    -0.01000
Br1414     Br  0.38376523  0.57866751  0.59013954    -0.01000
Br1415     Br  0.38792992  0.63967134  0.93492575    -0.01000
Br1416     Br  0.36426199  0.68769036  0.50116906    -0.01000
C1417       C  0.07504761  0.85431479  0.85406868    -0.02100
C1418       C  0.03695236  0.85469521  0.86204535     0.07600
C1419       C  0.01251442  0.85477456  0.83468669    -0.02200
C1420       C  0.02511195  0.84359293  0.80208144    -0.02200
C1421       C  0.06289554  0.83756146  0.79629656     0.07700
C1422       C  0.08715765  0.85126518  0.82041078    -0.02400
Br1423     Br  0.13836350  0.86106733  0.80918201    -0.01000
Br1424     Br  0.11212771  0.85567266  0.88822012    -0.01000
Br1425     Br  0.99337892  0.84535321  0.76406112    -0.01000
Br1426     Br  0.46592473  0.87760726  0.83938985    -0.01000
C1427       C  0.00749648  0.53226895  0.57510023    -0.02100
C1428       C  0.00188832  0.55033327  0.54502877     0.07600
C1429       C  0.00494476  0.58560102  0.54552431    -0.02200
C1430       C  0.02532917  0.60048125  0.57102011    -0.02200
C1431       C  0.04372826  0.57905221  0.59408658     0.07700
C1432       C  0.02869121  0.54692806  0.60020378    -0.02400
Br1433     Br  0.03208924  0.52552772  0.64366579    -0.01000
Br1434     Br  0.98867122  0.98704283  0.58067405    -0.01000
Br1435     Br  0.02849744  0.64953579  0.57267232    -0.01000
Br1436     Br  0.98369811  0.61292151  0.01100325    -0.01000
C1437       C  0.57620217  0.09259147  0.11281229     0.86200
C1438       C  0.60440946  0.06873786  0.12974468    -0.54000
C1439       C  0.63224602  0.08549151  0.14541243     0.09200
C1440       C  0.62706135  0.12567442  0.14285878     0.20100
C1441       C  0.56103069  0.11611735  0.14067291    -0.54700
C1442       C  0.58559562  0.13496014  0.15663523     0.09300
C1443       C  0.60115702  0.11337119  0.08855707    -0.54300
C1444       C  0.62816403  0.13081994  0.10329948     0.09800
H1445       H  0.60439075  0.04141585  0.12711070     0.14400
H1446       H  0.64817022  0.14071415  0.15585009     0.00100
H1447       H  0.53183129  0.11912315  0.14568545     0.14700
H1448       H  0.59794063  0.11390509  0.06132577     0.14400
C1449       C  0.57158741  0.16771792  0.17745573     0.29800
C1450       C  0.56757734  0.23029692  0.21097753     0.29800
C1451       C  0.59412135  0.19579465  0.16301768    -0.06400
C1452       C  0.53162201  0.18537719  0.17878951    -0.07200
C1453       C  0.57976167  0.16773396  0.21509831    -0.07100
C1454       C  0.59206454  0.22717286  0.17926990    -0.06500
C1455       C  0.52968489  0.21738211  0.19641731    -0.07200
C1456       C  0.57818178  0.19921657  0.23209081    -0.07100
C1457       C  0.59447047  0.25067953  0.15405328    -0.32500
N1458       N  0.59944193  0.23483347  0.12408853     0.14000
C1459       C  0.59651503  0.20185464  0.12921116    -0.32500
H1460       H  0.58715659  0.18443209  0.11037644     0.15900
C1461       C  0.99246451  0.22703159  0.19742759    -0.31500
N1462       N  0.97168867  0.20343154  0.18079486     0.12700
C1463       C  0.99529296  0.17827766  0.16932472    -0.31500
C1464       C  0.56866276  0.19172905  0.26540003    -0.31800
N1465       N  0.56763416  0.15770677  0.27035053     0.13200
H1466       H  0.56134209  0.21029431  0.28482008     0.15900
C1467       C  0.56974704  0.14383216  0.23892606    -0.31800
H1468       H  0.56532482  0.11717745  0.23382241     0.15900
H1469       H  0.98626951  0.15576207  0.15628556     0.15900
H1470       H  0.58433419  0.27596404  0.15703365     0.15900
H1471       H  0.98132681  0.24948130  0.20998003     0.15900
C1472       C  0.57939855  0.31382953  0.26905316     0.86200
C1473       C  0.60131350  0.33439507  0.24224855    -0.54000
C1474       C  0.62452500  0.31629544  0.22156962     0.09200
C1475       C  0.62113515  0.27654747  0.22933757     0.20100
C1476       C  0.55725383  0.28647246  0.24887394    -0.54700
C1477       C  0.57895819  0.26563776  0.22802255     0.09300
C1478       C  0.60701259  0.29125163  0.28732416    -0.54300
C1479       C  0.62997369  0.27298489  0.26759483     0.09800
H1480       H  0.60062434  0.36187191  0.24187827     0.14400
H1481       H  0.63915200  0.26051673  0.21275054     0.00100
H1482       H  0.52833042  0.28147520  0.25350443     0.14700
H1483       H  0.60776626  0.28895826  0.31469785     0.14400
C1484       C  0.66641619  0.06773618  0.16179564     0.29800
C1485       C  0.72840094  0.05036269  0.19656734     0.29800
C1486       C  0.67042909  0.08374071  0.19581102    -0.06400
C1487       C  0.67131013  0.02714075  0.17087468    -0.07200
C1488       C  0.70430676  0.07767310  0.14509533    -0.07100
C1489       C  0.69977545  0.07333419  0.21352630    -0.06500
C1490       C  0.70347652  0.01969850  0.18917029    -0.07200
C1491       C  0.73527258  0.06532095  0.16076688    -0.07100
C1492       C  0.69151358  0.08014194  0.24649407    -0.32500
N1493       N  0.66164439  0.10021187  0.24845538     0.14000
C1494       C  0.64742533  0.10125818  0.21750293    -0.32500
H1495       H  0.62069667  0.10948300  0.21185825     0.15900
C1496       C  0.70322225  0.48577317  0.19819391    -0.31500
N1497       N  0.67276112  0.46985576  0.18659283     0.12700
C1498       C  0.65353290  0.99461706  0.16932582    -0.31500
C1499       C  0.76592928  0.08083754  0.14591106    -0.31800
N1500       N  0.75521291  0.10702693  0.12638348     0.13200
H1501       H  0.79409454  0.07456565  0.15103744     0.15900
C1502       C  0.71787751  0.10726252  0.13010121    -0.31800
H1503       H  0.70208991  0.12998455  0.12880043     0.15900
H1504       H  0.62872622  0.48949866  0.15583054     0.15900
H1505       H  0.70440789  0.06792375  0.26730070     0.15900
H1506       H  0.72493346  0.47306097  0.21126494     0.15900
C1507       C  0.82824730  0.13850189  0.06070120     0.86200
C1508       C  0.84500587  0.16381610  0.08540554    -0.54000
C1509       C  0.82079666  0.17875151  0.10732851     0.09200
C1510       C  0.77900618  0.16754927  0.09991979     0.20100
C1511       C  0.80535841  0.11332297  0.08280968    -0.54700
C1512       C  0.77908077  0.12791140  0.10383220     0.09300
C1513       C  0.79825837  0.15693754  0.04116536    -0.54300
C1514       C  0.77222580  0.17263077  0.06044862     0.09800
H1515       H  0.87446252  0.16669151  0.08767560     0.14400
H1516       H  0.75811442  0.18029227  0.11673240     0.00100
H1517       H  0.80829493  0.08602100  0.08092649     0.14700
H1518       H  0.79671345  0.15613154  0.01385158     0.14400
C1519       C  0.61095320  0.09641100  0.33191248     0.86200
C1520       C  0.57864332  0.11760778  0.31757200    -0.54000
C1521       C  0.58999110  0.14233798  0.29556041     0.09200
C1522       C  0.63140051  0.14361918  0.29027488     0.20100
C1523       C  0.63404722  0.08452101  0.30096053    -0.54700
C1524       C  0.64242806  0.10840080  0.27897370     0.09300
C1525       C  0.63729760  0.12287821  0.34788538    -0.54300
C1526       C  0.64769223  0.14799999  0.32587755     0.09800
H1527       H  0.54988570  0.11144202  0.32181456     0.14400
H1528       H  0.64049177  0.16183562  0.27066354     0.00100
H1529       H  0.64333146  0.05864948  0.29609981     0.14700
H1530       H  0.65164021  0.11945158  0.37107175     0.14400
C1531       C  0.83147793  0.22025407  0.20691488     0.29800
C1532       C  0.83400312  0.19479862  0.14170085     0.29800
C1533       C  0.81751094  0.24352867  0.17955278    -0.06400
C1534       C  0.87174393  0.21224389  0.19249875    -0.07200
C1535       C  0.81305445  0.18682841  0.20105576    -0.07100
C1536       C  0.81958249  0.23079881  0.14635479    -0.06500
C1537       C  0.87356336  0.19855468  0.15875266    -0.07200
C1538       C  0.81444276  0.17395675  0.16814877    -0.07100
C1539       C  0.82893149  0.25811448  0.12641867    -0.32500
N1540       N  0.82828902  0.28714078  0.14466349     0.14000
C1541       C  0.82401605  0.27783086  0.17725565    -0.32500
H1542       H  0.83009635  0.29424885  0.19840058     0.15900
C1543       C  0.91152790  0.19328758  0.15152300    -0.31500
N1544       N  0.93209584  0.20369789  0.17853926     0.12700
C1545       C  0.90786717  0.21517878  0.20331483    -0.31500
C1546       C  0.81823649  0.13944648  0.17052092    -0.31800
N1547       N  0.81797442  0.13115642  0.20297556     0.13200
H1548       H  0.82718924  0.12232549  0.15047251     0.15900
C1549       C  0.81650869  0.15954150  0.22161013    -0.31800
H1550       H  0.82684601  0.16081977  0.24660439     0.15900
H1551       H  0.91592610  0.22483027  0.22769765     0.15900
H1552       H  0.84007841  0.25670894  0.10080941     0.15900
H1553       H  0.92323192  0.18332897  0.12796510     0.15900
C1554       C  0.79789143  0.36508139  0.09695956     0.86200
C1555       C  0.76719918  0.37396377  0.12247352    -0.54000
C1556       C  0.75086647  0.34738527  0.13707268     0.09200
C1557       C  0.76791743  0.31284783  0.12548374     0.20100
C1558       C  0.82545768  0.34273241  0.11626855    -0.54700
C1559       C  0.80898816  0.31576571  0.13190898     0.09300
C1560       C  0.78205814  0.33900817  0.07158316    -0.54300
C1561       C  0.76668450  0.31149344  0.08677104     0.09800
H1562       H  0.75903352  0.39970011  0.12727716     0.14400
H1563       H  0.75486034  0.29040401  0.13745295     0.00100
H1564       H  0.85507798  0.34512503  0.11425876     0.14700
H1565       H  0.78444648  0.34128363  0.04426526     0.14400
C1566       C  0.82033098  0.04937971  0.24826915     0.86200
C1567       C  0.78739546  0.03233430  0.22972536    -0.54000
C1568       C  0.76210074  0.05551506  0.21901476     0.09200
C1569       C  0.77117793  0.09263214  0.23050061     0.20100
C1570       C  0.83430972  0.07615621  0.22329796    -0.54700
C1571       C  0.80890810  0.09905722  0.21575438     0.09100
C1572       C  0.80070808  0.06887677  0.27842774    -0.54300
C1573       C  0.77571562  0.09231068  0.26896010     0.09800
H1574       H  0.78346181  0.00555885  0.22563655     0.14400
H1575       H  0.75202841  0.11285032  0.22263251     0.00100
H1576       H  0.86288731  0.07895151  0.21507532     0.14700
H1577       H  0.80810188  0.06608393  0.30466981     0.14400
C1578       C  0.65577333  0.33396881  0.19887388     0.29800
C1579       C  0.71694906  0.34947077  0.16011867     0.29800
C1580       C  0.65540268  0.32228665  0.16182954    -0.06400
C1581       C  0.66357949  0.37492339  0.19324590    -0.07200
C1582       C  0.69367452  0.32026973  0.21030574    -0.07100
C1583       C  0.68719228  0.32929334  0.14284283    -0.06500
C1584       C  0.69528646  0.38123772  0.17239851    -0.07200
C1585       C  0.72391663  0.33194584  0.19296728    -0.07100
C1586       C  0.67788835  0.33105404  0.10955920    -0.32500
N1587       N  0.64210649  0.32436308  0.10649451     0.14000
C1588       C  0.62775101  0.32250101  0.13845805    -0.32500
H1589       H  0.59875044  0.32521359  0.14431220     0.15900
C1590       C  0.69870656  0.41577445  0.16691332    -0.31500
N1591       N  0.67115440  0.43321632  0.18282460     0.12700
C1592       C  0.64977674  0.40897679  0.19967468    -0.31500
C1593       C  0.75474837  0.31752130  0.20578016    -0.31800
N1594       N  0.74479708  0.29171865  0.22613213     0.13200
H1595       H  0.78223259  0.32622238  0.20069985     0.15900
C1596       C  0.70750366  0.29167036  0.22617421    -0.31800
H1597       H  0.69217869  0.26986285  0.23237495     0.15900
H1598       H  0.62610859  0.41526355  0.21573297     0.15900
H1599       H  0.69541897  0.34015318  0.08923545     0.15900
H1600       H  0.72034947  0.42850045  0.15321280     0.15900
C1601       C  0.58343730  0.27942444  0.04241389     0.86200
C1602       C  0.57379364  0.25594693  0.07228957    -0.54000
C1603       C  0.60271513  0.24991357  0.09188640     0.09200
C1604       C  0.63854545  0.26524577  0.07969746     0.20100
C1605       C  0.60132129  0.31060725  0.06030362    -0.54700
C1606       C  0.62994824  0.30280390  0.07961258     0.09300
C1607       C  0.61519053  0.26060507  0.02255455    -0.54300
C1608       C  0.64433898  0.25334068  0.04209232     0.09800
H1609       H  0.54675613  0.24699864  0.07955158     0.14400
H1610       H  0.66106494  0.25884528  0.09691312     0.00100
H1611       H  0.58981559  0.33585850  0.06175720     0.14700
H1612       H  0.61359345  0.25158996  0.99663709     0.14400
C1613       C  0.81809966  0.27306287  0.29046067     0.86200
C1614       C  0.83986969  0.25252580  0.26299031    -0.54000
C1615       C  0.81828252  0.23317810  0.24287752     0.09200
C1616       C  0.77572758  0.23638292  0.25403217     0.20100
C1617       C  0.79188809  0.29365580  0.26862442    -0.54700
C1618       C  0.76880029  0.27503455  0.24985243     0.09300
C1619       C  0.79554386  0.24811566  0.31137477    -0.54300
C1620       C  0.77191298  0.22982940  0.29413618     0.09800
H1621       H  0.86839340  0.25742833  0.25631200     0.14400
H1622       H  0.75709140  0.22073445  0.23864064     0.00100
H1623       H  0.79251599  0.32112923  0.26727304     0.14700
H1624       H  0.79621473  0.24711626  0.33882607     0.14400
C1625       C  0.73909407  0.19151785  0.04450345     0.29800
C1626       C  0.67768032  0.23062312  0.03370579     0.29800
C1627       C  0.74021395  0.22860774  0.05608912    -0.06400
C1628       C  0.72886883  0.19631750  0.00510381    -0.07200
C1629       C  0.70239654  0.17869777  0.05971940    -0.07100
C1630       C  0.71031936  0.24813506  0.04907467    -0.06500
C1631       C  0.69655197  0.21623946  0.00028614    -0.07200
C1632       C  0.67220802  0.19850880  0.05447828    -0.07100
C1633       C  0.71918613  0.28144859  0.05493431    -0.32500
N1634       N  0.75266858  0.28269275  0.06852666     0.14000
C1635       C  0.76617732  0.25046531  0.06822986    -0.32500
H1636       H  0.79331941  0.24306516  0.07428211     0.15900
C1637       C  0.69238230  0.21909811  0.46535577    -0.31500
N1638       N  0.72036791  0.20283225  0.44779329     0.12700
C1639       C  0.74254112  0.18838202  0.47158245    -0.31500
C1640       C  0.64183843  0.18144357  0.06698445    -0.31800
N1641       N  0.65251323  0.15308853  0.08316852     0.13200
H1642       H  0.61379760  0.18852787  0.06247428     0.15900
C1643       C  0.68878792  0.14917407  0.07389729    -0.31800
H1644       H  0.70362622  0.12556248  0.07365127     0.15900
H1645       H  0.76652327  0.17314964  0.46510553     0.15900
H1646       H  0.70233150  0.30302280  0.04926345     0.15900
H1647       H  0.67021144  0.23249504  0.45362496     0.15900
C1648       C  0.74167161  0.20927247  0.31358604     0.29800
C1649       C  0.68173440  0.16982768  0.32787612     0.29800
C1650       C  0.74320661  0.17294539  0.29985204    -0.06400
C1651       C  0.73294037  0.20288028  0.35372683    -0.07200
C1652       C  0.70450676  0.22292090  0.30280817    -0.07100
C1653       C  0.71318084  0.15299516  0.30717809    -0.06500
C1654       C  0.70150225  0.18229881  0.35997474    -0.07200
C1655       C  0.67476406  0.20310181  0.30967252    -0.07100
C1656       C  0.72490636  0.11969627  0.30354664    -0.32500
N1657       N  0.76007358  0.11858732  0.29132522     0.14000
C1658       C  0.77204395  0.15104730  0.29221079    -0.32500
H1659       H  0.80048352  0.15798155  0.29252664     0.15900
C1660       C  0.69522176  0.17977825  0.39474656    -0.31500
N1661       N  0.72146659  0.19710584  0.41154118     0.12700
C1662       C  0.74433252  0.21161529  0.38703517    -0.31500
C1663       C  0.64429222  0.22014857  0.29865196    -0.31800
N1664       N  0.65478133  0.24886594  0.28288158     0.13200
H1665       H  0.61650963  0.21302719  0.30401954     0.15900
C1666       C  0.69098118  0.25265966  0.28980681    -0.31800
H1667       H  0.70615975  0.27590255  0.28745405     0.15900
H1668       H  0.76683873  0.22829280  0.39278186     0.15900
H1669       H  0.70956701  0.09788103  0.31188205     0.15900
H1670       H  0.67239277  0.16692218  0.40701956     0.15900
N1671       N  0.00475777  0.01675699  0.46183172    -0.06400
N1672       N  0.99464091  0.04193176  0.48241561    -0.58500
N1673       N  0.54803320  0.45849957  0.41533533    -0.06000
N1674       N  0.58182462  0.45447289  0.40280946    -0.60600
N1675       N  0.02876917  0.97744767  0.39565081    -0.05600
N1676       N  0.04795972  0.98511719  0.36860561    -0.58500
N1677       N  0.52167996  0.49336903  0.47911512    -0.05300
N1678       N  0.52372145  0.50205818  0.51099967    -0.61000
C1679       C  0.50665009  0.03220216  0.01296716     0.95800
C1680       C  0.58164910  0.97201320  0.37358111     0.95600
N1681       N  0.99000716  0.37526120  0.44025757    -0.06600
N1682       N  0.99079871  0.35591778  0.41245656    -0.59100
N1683       N  0.50101373  0.42553917  0.51073599    -0.04700
N1684       N  0.52200797  0.41482992  0.53497063    -0.60300
N1685       N  0.97011096  0.40882072  0.51157090    -0.06600
N1686       N  0.97011400  0.38692550  0.53621125    -0.59300
N1687       N  0.52135089  0.39149094  0.44226815    -0.04300
N1688       N  0.54364334  0.38282628  0.41706112    -0.60400
Mn1689     Mn  0.52422129  0.44214383  0.46269036     1.18400
C1690       C  0.52489254  0.36070049  0.39844526     0.97900
C1691       C  0.50462225  0.38721259  0.04649260     0.98600
N1692       N  0.95212887  0.98756963  0.36691874    -0.06600
N1693       N  0.96003897  0.99303361  0.33470091    -0.62900
N1694       N  0.89999998  0.51432884  0.43346073    -0.05400
N1695       N  0.87592370  0.53379418  0.44991506    -0.63600
N1696       N  0.93122941  0.03018088  0.42943929    -0.06100
N1697       N  0.92928022  0.06081157  0.44259859    -0.63200
N1698       N  0.92050654  0.47210526  0.37010409    -0.05000
N1699       N  0.90644074  0.96661402  0.34035925    -0.63900
Mn1700     Mn  0.98025362  0.00420776  0.41251052     1.10700
C1701       C  0.93060110  0.98085918  0.31825274     0.99100
C1702       C  0.89525957  0.06377769  0.95494376     0.99200
N1703       N  0.89364280  0.42575389  0.48781163    -0.06100
N1704       N  0.88320237  0.42754262  0.51981187    -0.61500
N1705       N  0.89490880  0.40880776  0.40528201    -0.05400
N1706       N  0.88063595  0.39537354  0.37830553    -0.58200
N1707       N  0.91020244  0.38548393  0.42334380    -0.06700
N1708       N  0.90587521  0.35529556  0.40998453    -0.61100
N1709       N  0.87671615  0.44902885  0.47045220    -0.05700
N1710       N  0.85384456  0.46673716  0.49026286    -0.58200
Mn1711     Mn  0.94045033  0.39745169  0.46654917     1.20200
Mn1712     Mn  0.89614766  0.46121057  0.41943115     1.10100
Cl1713     Cl  0.96007486  0.45144600  0.44042995    -0.86200
C1714       C  0.85888514  0.45355120  0.02072309     0.96100
C1715       C  0.88752730  0.36207094  0.38190771     0.95900
C1716       C  0.81533935  0.31946455  0.33406023    -0.02100
C1717       C  0.83709442  0.29498600  0.31541298     0.07600
C1718       C  0.87190560  0.28596762  0.32775822    -0.02200
C1719       C  0.88846724  0.30745205  0.35098707    -0.02200
C1720       C  0.86940260  0.33657561  0.36259910     0.07700
C1721       C  0.83213215  0.34128159  0.35632050    -0.02400
Br1722     Br  0.80280158  0.37573008  0.38037331    -0.01000
Br1723     Br  0.76165774  0.32091958  0.33440470    -0.01000
Br1724     Br  0.93646715  0.29601869  0.36737953    -0.01000
Br1725     Br  0.89441047  0.24200847  0.31906345    -0.01000
C1726       C  0.50480016  0.32459289  0.05164884    -0.02100
C1727       C  0.52283548  0.35408538  0.03971576     0.07600
C1728       C  0.55005126  0.35021488  0.01277448    -0.02200
C1729       C  0.55909100  0.31749623  0.00071848    -0.02200
C1730       C  0.55071591  0.29029731  0.02181241     0.07700
C1731       C  0.51687516  0.29281085  0.03965582    -0.02400
Br1732     Br  0.48569837  0.25370529  0.04291062    -0.01000
Br1733     Br  0.46369340  0.32708205  0.08371572    -0.01000
Br1734     Br  0.59225111  0.31036303  0.96260815    -0.01000
Br1735     Br  0.58274301  0.38620012  0.49796977    -0.01000
C1736       C  0.91164264  0.03454774  0.29188867    -0.02100
C1737       C  0.91461415  0.99901914  0.29000961     0.07600
C1738       C  0.89247771  0.98081459  0.26768707    -0.02200
C1739       C  0.86434050  0.99734413  0.25063962    -0.02200
C1740       C  0.85473122  0.03106066  0.26000722     0.07700
C1741       C  0.88112340  0.05046582  0.27827210    -0.02400
Br1742     Br  0.87750004  0.09953680  0.28515801    -0.01000
Br1743     Br  0.94771739  0.06208141  0.31461817    -0.01000
Br1744     Br  0.84607194  0.97536255  0.21080093    -0.01000
Br1745     Br  0.90021554  0.43272299  0.26152033    -0.01000
C1746       C  0.83760478  0.41884199  0.09630942    -0.02100
C1747       C  0.80989372  0.39847483  0.08156275     0.07600
C1748       C  0.78630245  0.41498983  0.05832474    -0.02200
C1749       C  0.79801000  0.44495040  0.04285035    -0.02200
C1750       C  0.83301844  0.45680353  0.04929456     0.07700
C1751       C  0.84806555  0.44891909  0.08029335    -0.02400
Br1752     Br  0.88734989  0.47649494  0.09640786    -0.01000
Br1753     Br  0.85928506  0.40949904  0.13924891    -0.01000
Br1754     Br  0.76851087  0.46812612  0.51081124    -0.01000
Br1755     Br  0.73699874  0.39984399  0.04898293    -0.01000
C1756       C  0.61478487  0.05338089  0.38054396    -0.02100
C1757       C  0.60010775  0.06315907  0.34926543     0.07600
C1758       C  0.58854227  0.03670470  0.32703452    -0.02200
C1759       C  0.60476866  0.00469344  0.32977750    -0.02200
C1760       C  0.61181803  0.99394089  0.36237211     0.07700
C1761       C  0.62192717  0.01868583  0.38640281    -0.02400
Br1762     Br  0.64323906  0.00427944  0.42784031    -0.01000
Br1763     Br  0.61605334  0.08475487  0.41822192    -0.01000
Br1764     Br  0.60103603  0.97095065  0.29438742    -0.01000
Br1765     Br  0.55753952  0.04509519  0.28908560    -0.01000
C1766       C  0.87438894  0.09205390  0.04403972    -0.02100
C1767       C  0.85775228  0.12343861  0.03726665     0.07600
C1768       C  0.86753573  0.13970104  0.00649250    -0.02200
C1769       C  0.88043153  0.12001945  0.97904955    -0.02200
C1770       C  0.88690218  0.08550196  0.98387352     0.07700
C1771       C  0.88827325  0.07250311  0.01682477    -0.02400
Br1772     Br  0.91039204  0.52902462  0.02465431    -0.01000
Br1773     Br  0.88318471  0.07844385  0.08994207    -0.01000
Br1774     Br  0.88620496  0.13822634  0.43437056    -0.01000
Br1775     Br  0.86491699  0.18840886  0.00202753    -0.01000
C1776       C  0.57483266  0.35388456  0.35451633    -0.02100
C1777       C  0.53675197  0.35414184  0.36257726     0.07600
C1778       C  0.51227458  0.35435779  0.33524753    -0.02200
C1779       C  0.52484149  0.34340165  0.30254475    -0.02200
C1780       C  0.56262896  0.33745489  0.29665896     0.07700
C1781       C  0.58688344  0.35106906  0.32081795    -0.02400
Br1782     Br  0.63801730  0.36107380  0.30953605    -0.01000
Br1783     Br  0.61199133  0.35521724  0.38857802    -0.01000
Br1784     Br  0.49312071  0.34557082  0.26454376    -0.01000
Br1785     Br  0.96572411  0.37722073  0.34014514    -0.01000
C1786       C  0.50771608  0.03217166  0.07513164    -0.02100
C1787       C  0.50187067  0.05031923  0.04516632     0.07600
C1788       C  0.50461178  0.08560111  0.04583022    -0.02200
C1789       C  0.52512237  0.10049623  0.07122839    -0.02200
C1790       C  0.54373868  0.07907901  0.09416289     0.07700
C1791       C  0.52894000  0.04683722  0.10020123    -0.02400
Br1792     Br  0.53271885  0.02519415  0.14351051    -0.01000
Br1793     Br  0.48913777  0.48685528  0.08060544    -0.01000
Br1794     Br  0.52813296  0.14955533  0.07290780    -0.01000
Br1795     Br  0.48480848  0.11291115  0.51029115    -0.01000
C1796       C  0.57623863  0.09245839  0.61275873     0.86200
C1797       C  0.60437145  0.06856357  0.62975729    -0.54000
C1798       C  0.63229225  0.08529817  0.64535910     0.09200
C1799       C  0.62717983  0.12548558  0.64275090     0.20100
C1800       C  0.56112944  0.11605281  0.64057998    -0.54700
C1801       C  0.58573715  0.13485162  0.65653354     0.09300
C1802       C  0.60127037  0.11313465  0.58847385    -0.54300
C1803       C  0.62828602  0.13058289  0.60318793     0.09800
H1804       H  0.60419588  0.04123146  0.62724871     0.14400
H1805       H  0.64831676  0.14051303  0.65571665     0.00100
H1806       H  0.53193733  0.11910916  0.64559295     0.14700
H1807       H  0.59808182  0.11362048  0.56123889     0.14400
C1808       C  0.57179415  0.16762846  0.67735950     0.29800
C1809       C  0.56781866  0.23021641  0.71086185     0.29800
C1810       C  0.59443584  0.19566176  0.66297651    -0.06400
C1811       C  0.53186159  0.18534585  0.67862346    -0.07200
C1812       C  0.57989275  0.16764106  0.71502542    -0.07100
C1813       C  0.59238748  0.22703889  0.67921718    -0.06500
C1814       C  0.52993893  0.21735283  0.69624051    -0.07200
C1815       C  0.57833292  0.19913451  0.73200528    -0.07100
C1816       C  0.59495731  0.25054188  0.65401635    -0.32500
N1817       N  0.60005727  0.23469404  0.62407094     0.14000
C1818       C  0.59699188  0.20172219  0.62918012    -0.32500
H1819       H  0.58757999  0.18434558  0.61033124     0.15900
C1820       C  0.99270638  0.22697634  0.69732079    -0.31500
N1821       N  0.97191398  0.20336254  0.68072413     0.12700
C1822       C  0.99551638  0.17822246  0.66922532    -0.31500
C1823       C  0.56875858  0.19168059  0.76530637    -0.31800
N1824       N  0.56768459  0.15766374  0.77027492     0.13200
H1825       H  0.56144254  0.21026399  0.78470937     0.15900
C1826       C  0.56981287  0.14376560  0.73885854    -0.31800
H1827       H  0.56538608  0.11711005  0.73376909     0.15900
H1828       H  0.98646843  0.15568434  0.65624295     0.15900
H1829       H  0.58482745  0.27583272  0.65696537     0.15900
H1830       H  0.98157011  0.24940139  0.70992285     0.15900
C1831       C  0.57963988  0.31382924  0.76880464     0.86200
C1832       C  0.60155968  0.33432841  0.74197762    -0.54000
C1833       C  0.62478088  0.31618674  0.72137163     0.09200
C1834       C  0.62137733  0.27645929  0.72919881     0.20100
C1835       C  0.55749605  0.28643248  0.74867820    -0.54700
C1836       C  0.57920427  0.26556013  0.72787905     0.09300
C1837       C  0.60722409  0.29128532  0.78714873    -0.54300
C1838       C  0.63018093  0.27296544  0.76746230     0.09800
H1839       H  0.60088062  0.36180606  0.74155316     0.14400
H1840       H  0.63939765  0.26039726  0.71265039     0.00100
H1841       H  0.52857388  0.28142898  0.75330937     0.14700
H1842       H  0.60795169  0.28905526  0.81452872     0.14400
C1843       C  0.66646726  0.06755718  0.66177657     0.29800
C1844       C  0.72843018  0.05023043  0.69663331     0.29800
C1845       C  0.67046750  0.08362522  0.69576883    -0.06400
C1846       C  0.67135436  0.02698442  0.67091911    -0.07200
C1847       C  0.70438963  0.07744761  0.64508493    -0.07100
C1848       C  0.69980820  0.07325962  0.71350924    -0.06500
C1849       C  0.70349369  0.01957069  0.68926849    -0.07200
C1850       C  0.73534008  0.06511018  0.66081441    -0.07100
C1851       C  0.69159162  0.08022460  0.74644487    -0.32500
N1852       N  0.66175508  0.10033441  0.74836086     0.14000
C1853       C  0.64750426  0.10125507  0.71741296    -0.32500
H1854       H  0.62076200  0.10945509  0.71175968     0.15900
C1855       C  0.70328481  0.48563945  0.69825105    -0.31500
N1856       N  0.67288947  0.46969251  0.68655842     0.12700
C1857       C  0.65364755  0.99443845  0.66928942    -0.31500
C1858       C  0.76602251  0.08061260  0.64600809    -0.31800
N1859       N  0.75534304  0.10678693  0.62645408     0.13200
H1860       H  0.79417546  0.07435650  0.65120160     0.15900
C1861       C  0.71800083  0.10702280  0.63009002    -0.31800
H1862       H  0.70222713  0.12974731  0.62874332     0.15900
H1863       H  0.62890603  0.48928906  0.65571003     0.15900
H1864       H  0.70445948  0.06803526  0.76727736     0.15900
H1865       H  0.72500252  0.47293807  0.71132167     0.15900
C1866       C  0.82836631  0.13821668  0.56076379     0.86200
C1867       C  0.84514980  0.16358113  0.58542102    -0.54000
C1868       C  0.82096175  0.17850935  0.60738678     0.09200
C1869       C  0.77916203  0.16729342  0.59999826     0.20100
C1870       C  0.80554919  0.11305197  0.58294302    -0.54700
C1871       C  0.77925535  0.12765667  0.60394214     0.09300
C1872       C  0.79830794  0.15656208  0.54125417    -0.54300
C1873       C  0.77234691  0.17232006  0.56052032     0.09800
H1874       H  0.87460879  0.16647223  0.58764770     0.14400
H1875       H  0.75827325  0.18004579  0.61680546     0.00100
H1876       H  0.80855686  0.08574943  0.58112083     0.14700
H1877       H  0.79659897  0.15560011  0.51396124     0.14400
C1878       C  0.61102518  0.09633356  0.83176639     0.86200
C1879       C  0.57869827  0.11752532  0.81745433    -0.54000
C1880       C  0.59002915  0.14231079  0.79549850     0.09200
C1881       C  0.63143793  0.14365666  0.79024794     0.20100
C1882       C  0.63415859  0.08454902  0.80081346    -0.54700
C1883       C  0.64251684  0.10847462  0.77888020     0.09300
C1884       C  0.63731502  0.12280867  0.84782353    -0.54300
C1885       C  0.64768431  0.14800699  0.82588140     0.09800
H1886       H  0.54994794  0.11131760  0.82166178     0.14400
H1887       H  0.64051319  0.16189927  0.77065908     0.00100
H1888       H  0.64349042  0.05869726  0.79590547     0.14700
H1889       H  0.65161190  0.11936854  0.87103461     0.14400
C1890       C  0.83169682  0.22008707  0.70700362     0.29800
C1891       C  0.83419518  0.19457207  0.64177388     0.29800
C1892       C  0.81774663  0.24334304  0.67961636    -0.06400
C1893       C  0.87195791  0.21204053  0.69257233    -0.07200
C1894       C  0.81323883  0.18667944  0.70114825    -0.07100
C1895       C  0.81981467  0.23058867  0.64641924    -0.06500
C1896       C  0.87375715  0.19832857  0.65882745    -0.07200
C1897       C  0.81461775  0.17377469  0.66824966    -0.07100
C1898       C  0.82920875  0.25788404  0.62647355    -0.32500
N1899       N  0.82857282  0.28691984  0.64469819     0.14000
C1900       C  0.82427306  0.27763821  0.67729663    -0.32500
H1901       H  0.83035542  0.29406771  0.69843025     0.15900
C1902       C  0.91172007  0.19311906  0.65155458    -0.31500
N1903       N  0.93231274  0.20357903  0.67853511     0.12700
C1904       C  0.90809980  0.21504332  0.70333657    -0.31500
C1905       C  0.81833244  0.13926265  0.67066417    -0.31800
N1906       N  0.81800457  0.13101369  0.70313275     0.13200
H1907       H  0.82727076  0.12210184  0.65064203     0.15900
C1908       C  0.81660403  0.15941601  0.72173790    -0.31800
H1909       H  0.82691797  0.16070245  0.74673168     0.15900
H1910       H  0.91617689  0.22475035  0.72768814     0.15900
H1911       H  0.84031965  0.25646324  0.60085024     0.15900
H1912       H  0.92340651  0.18318136  0.62797994     0.15900
C1913       C  0.79817475  0.36478323  0.59688047     0.86200
C1914       C  0.76752178  0.37372561  0.62242165    -0.54000
C1915       C  0.75120165  0.34718952  0.63707592     0.09200
C1916       C  0.76820641  0.31261678  0.62552784     0.20100
C1917       C  0.82575333  0.34244400  0.61618438    -0.54700
C1918       C  0.80928158  0.31552928  0.63190993     0.09300
C1919       C  0.78229471  0.33867257  0.57156549    -0.54300
C1920       C  0.76692907  0.31118422  0.58681538     0.09800
H1921       H  0.75932116  0.39947849  0.62720085     0.14400
H1922       H  0.75514720  0.29020191  0.63754977     0.00100
H1923       H  0.85537496  0.34476193  0.61407633     0.14700
H1924       H  0.78466310  0.34089707  0.54424072     0.14400
C1925       C  0.82029379  0.04925970  0.74849144     0.86200
C1926       C  0.78742397  0.03220632  0.72984191    -0.54000
C1927       C  0.76212290  0.05538604  0.71911072     0.09200
C1928       C  0.77117390  0.09250808  0.73062949     0.20100
C1929       C  0.83430750  0.07607065  0.72356936    -0.54700
C1930       C  0.80892155  0.09894067  0.71595616     0.09100
C1931       C  0.80052976  0.06868296  0.77861660    -0.54300
C1932       C  0.77562476  0.09217234  0.76910440     0.09800
H1933       H  0.78350655  0.00543307  0.72572886     0.14400
H1934       H  0.75205752  0.11273862  0.72272819     0.00100
H1935       H  0.86290622  0.07891061  0.71541712     0.14700
H1936       H  0.80781322  0.06583681  0.80488166     0.14400
C1937       C  0.65605900  0.33382991  0.69873809     0.29800
C1938       C  0.71727821  0.34934299  0.66008888     0.29800
C1939       C  0.65575785  0.32213866  0.66171123    -0.06400
C1940       C  0.66384134  0.37477623  0.69311968    -0.07200
C1941       C  0.69392931  0.32014059  0.71024134    -0.07100
C1942       C  0.68757618  0.32914880  0.64277884    -0.06500
C1943       C  0.69557740  0.38111144  0.67232205    -0.07200
C1944       C  0.72419353  0.33184365  0.69295394    -0.07100
C1945       C  0.67836108  0.33087481  0.60947820    -0.32500
N1946       N  0.64259607  0.32418701  0.60637154     0.14000
C1947       C  0.62816037  0.32235519  0.63830033    -0.32500
H1948       H  0.59914441  0.32506406  0.64409209     0.15900
C1949       C  0.69897538  0.41565513  0.66686082    -0.31500
N1950       N  0.67136136  0.43306058  0.68273806     0.12700
C1951       C  0.64998099  0.40879988  0.69953926    -0.31500
C1952       C  0.75499441  0.31734556  0.70571732    -0.31800
N1953       N  0.74501387  0.29148322  0.72597532     0.13200
H1954       H  0.78249027  0.32605134  0.70067908     0.15900
C1955       C  0.70772653  0.29147055  0.72601858    -0.31800
H1956       H  0.69239328  0.26965955  0.73220887     0.15900
H1957       H  0.62627661  0.41505904  0.71556225     0.15900
H1958       H  0.69593611  0.33992712  0.58916237     0.15900
H1959       H  0.72065928  0.42839061  0.65320583     0.15900
C1960       C  0.58377166  0.27933058  0.54248316     0.86200
C1961       C  0.57423779  0.25584890  0.57238586    -0.54000
C1962       C  0.60322775  0.24978093  0.59187175     0.09200
C1963       C  0.63901265  0.26508470  0.57957239     0.20100
C1964       C  0.60178478  0.31047495  0.56028957    -0.54700
C1965       C  0.63046558  0.30265108  0.57948479     0.09300
C1966       C  0.61542928  0.26046894  0.52250137    -0.54300
C1967       C  0.64464915  0.25315238  0.54196105     0.09800
H1968       H  0.54723422  0.24690761  0.57975383     0.14400
H1969       H  0.66157091  0.25867134  0.59674130     0.00100
H1970       H  0.59030656  0.33572785  0.56184277     0.14700
H1971       H  0.61371873  0.25147982  0.49658635     0.14400
C1972       C  0.81816667  0.27310772  0.79045390     0.86200
C1973       C  0.84001094  0.25246649  0.76308210    -0.54000
C1974       C  0.81847750  0.23303346  0.74298137     0.09200
C1975       C  0.77590761  0.23623382  0.75409003     0.20100
C1976       C  0.79199828  0.29356686  0.76849144    -0.54700
C1977       C  0.76896101  0.27486588  0.74977072     0.09300
C1978       C  0.79557438  0.24823560  0.81144340    -0.54300
C1979       C  0.77202643  0.22980586  0.79422146     0.09800
H1980       H  0.86854199  0.25736208  0.75643389     0.14400
H1981       H  0.75730586  0.22052350  0.73872546     0.00100
H1982       H  0.79262116  0.32103405  0.76700898     0.14700
H1983       H  0.79616682  0.24738660  0.83890025     0.14400
C1984       C  0.73926981  0.19120541  0.54449462     0.29800
C1985       C  0.67793471  0.23036350  0.53356152     0.29800
C1986       C  0.74042626  0.22830042  0.55603912    -0.06400
C1987       C  0.72910698  0.19597207  0.50505458    -0.07200
C1988       C  0.70255372  0.17843355  0.55967064    -0.07100
C1989       C  0.71060752  0.24786230  0.54890927    -0.06500
C1990       C  0.69682087  0.21592607  0.50018488    -0.07200
C1991       C  0.67239290  0.19825841  0.55436452    -0.07100
C1992       C  0.71949427  0.28116581  0.55483983    -0.32500
N1993       N  0.75288444  0.28235445  0.56862218     0.14000
C1994       C  0.76633042  0.25010444  0.56837794    -0.32500
H1995       H  0.79338879  0.24264079  0.57462458     0.15900
C1996       C  0.69206971  0.21940119  0.96545503    -0.31500
N1997       N  0.72006480  0.20316432  0.94786789     0.12700
C1998       C  0.74228106  0.18874531  0.97163218    -0.31500
C1999       C  0.64199287  0.18118250  0.56681201    -0.31800
N2000       N  0.65263737  0.15282505  0.58302541     0.13200
H2001       H  0.61396155  0.18828766  0.56228958     0.15900
C2002       C  0.68892355  0.14891072  0.57382441    -0.31800
H2003       H  0.70376416  0.12529863  0.57361666     0.15900
H2004       H  0.76627593  0.17353473  0.96513547     0.15900
H2005       H  0.70269232  0.30276706  0.54913853     0.15900
H2006       H  0.66986534  0.23276918  0.95374149     0.15900
C2007       C  0.74174136  0.20925914  0.81367202     0.29800
C2008       C  0.68172741  0.16985051  0.82793290     0.29800
C2009       C  0.74329098  0.17287455  0.80006091    -0.06400
C2010       C  0.73285472  0.20300219  0.85381393    -0.07200
C2011       C  0.70461332  0.22286191  0.80274947    -0.07100
C2012       C  0.71323677  0.15296028  0.80737906    -0.06500
C2013       C  0.70138798  0.18244008  0.86004518    -0.07200
C2014       C  0.67483679  0.20307380  0.80961185    -0.07100
C2015       C  0.72487510  0.11964393  0.80370004    -0.32500
N2016       N  0.76002918  0.11849030  0.79145080     0.14000
C2017       C  0.77207667  0.15093259  0.79236479    -0.32500
H2018       H  0.80052607  0.15781966  0.79262676     0.15900
C2019       C  0.69498196  0.18004755  0.89481129    -0.31500
N2020       N  0.72117234  0.19743556  0.91161733     0.12700
C2021       C  0.74413577  0.21184542  0.88712748    -0.31500
C2022       C  0.64439240  0.22015352  0.79858106    -0.31800
N2023       N  0.65493508  0.24883998  0.78278964     0.13200
H2024       H  0.61659241  0.21307895  0.80394959     0.15900
C2025       C  0.69113438  0.25260123  0.78971317    -0.31800
H2026       H  0.70633404  0.27582959  0.78734758     0.15900
H2027       H  0.76665155  0.22850799  0.89288364     0.15900
H2028       H  0.70947450  0.09784480  0.81197282     0.15900
H2029       H  0.67213048  0.16720375  0.90706441     0.15900
N2030       N  0.00528491  0.01723527  0.96178488    -0.06400
N2031       N  0.99507113  0.04229943  0.98246486    -0.58500
N2032       N  0.54841907  0.45898274  0.91513898    -0.06000
N2033       N  0.58206630  0.45456481  0.90240193    -0.60600
N2034       N  0.02920784  0.97802367  0.89550710    -0.05600
N2035       N  0.04825805  0.98536798  0.86829095    -0.58500
N2036       N  0.52210948  0.49374052  0.97901595    -0.05300
N2037       N  0.52397778  0.50225567  0.01096000    -0.61000
C2038       C  0.50640780  0.03201470  0.51291651     0.95800
C2039       C  0.58186695  0.97201115  0.87311720     0.95600
N2040       N  0.99015004  0.37587052  0.93966073    -0.06600
N2041       N  0.99091580  0.35659410  0.91182044    -0.59100
N2042       N  0.50118645  0.42579069  0.01034976    -0.04700
N2043       N  0.52205237  0.41483718  0.03457411    -0.60300
N2044       N  0.97019307  0.40921742  0.01103721    -0.06600
N2045       N  0.96998375  0.38721581  0.03557943    -0.59300
N2046       N  0.52152845  0.39202246  0.94174925    -0.04300
N2047       N  0.54381651  0.38339360  0.91652973    -0.60400
Mn2048     Mn  0.52453549  0.44255970  0.96240624     1.18400
C2049       C  0.52502837  0.36134541  0.89785964     0.97900
C2050       C  0.50479018  0.38717087  0.54705373     0.98600
N2051       N  0.95271475  0.98857277  0.86669348    -0.06600
N2052       N  0.96076424  0.99395090  0.83447962    -0.62900
N2053       N  0.90057829  0.51525706  0.93324377    -0.05400
N2054       N  0.87648355  0.53479657  0.94958417    -0.63600
N2055       N  0.93186100  0.03104552  0.92933151    -0.06100
N2056       N  0.92993464  0.06168781  0.94248557    -0.63200
N2057       N  0.92109350  0.47309400  0.86980583    -0.05000
N2058       N  0.90720369  0.96744494  0.84001824    -0.63900
Mn2059     Mn  0.98082327  0.00496031  0.91238583     1.10700
C2060       C  0.93143466  0.98164573  0.81795107     0.99100
C2061       C  0.89465463  0.06281137  0.45517441     0.99200
N2062       N  0.89392118  0.42631794  0.98725474    -0.06100
N2063       N  0.88344221  0.42780874  0.01924646    -0.61500
N2064       N  0.89512864  0.40974331  0.90469347    -0.05400
N2065       N  0.88065880  0.39635941  0.87777029    -0.58200
N2066       N  0.91041961  0.38635386  0.92267231    -0.06700
N2067       N  0.90590788  0.35619448  0.90932497    -0.61100
N2068       N  0.87705247  0.44976152  0.97007002    -0.05700
N2069       N  0.85414487  0.46729459  0.99001675    -0.58200
Mn2070     Mn  0.94064640  0.39808434  0.96592740     1.20200
Mn2071     Mn  0.89656932  0.46213697  0.91906134     1.10100
Cl2072     Cl  0.96044386  0.45213924  0.94008689    -0.86200
C2073       C  0.85862930  0.45329692  0.52108117     0.96100
C2074       C  0.88746112  0.36302389  0.88132356     0.95900
C2075       C  0.81532678  0.31995927  0.83362931    -0.02100
C2076       C  0.83708040  0.29526299  0.81528309     0.07600
C2077       C  0.87189059  0.28643833  0.82771176    -0.02200
C2078       C  0.88842628  0.30818673  0.85072112    -0.02200
C2079       C  0.86939464  0.33749259  0.86195526     0.07700
C2080       C  0.83213656  0.34213846  0.85554380    -0.02400
Br2081     Br  0.80278072  0.37692983  0.87904281    -0.01000
Br2082     Br  0.76163954  0.32129232  0.83402750    -0.01000
Br2083     Br  0.93633246  0.29679467  0.86736528    -0.01000
Br2084     Br  0.89442363  0.24242775  0.81941098    -0.01000
C2085       C  0.50537163  0.32461948  0.55245862    -0.02100
C2086       C  0.52320778  0.35412716  0.54035497     0.07600
C2087       C  0.55023577  0.35029931  0.51325451    -0.02200
C2088       C  0.55918661  0.31759517  0.50107158    -0.02200
C2089       C  0.55091510  0.29032805  0.52211549     0.07700
C2090       C  0.51723135  0.29286437  0.54022065    -0.02400
Br2091     Br  0.48597018  0.25383446  0.54361132    -0.01000
Br2092     Br  0.46485633  0.32709115  0.58515121    -0.01000
Br2093     Br  0.59221263  0.31053363  0.46287502    -0.01000
Br2094     Br  0.58254639  0.38608571  0.99740905    -0.01000
C2095       C  0.91202134  0.03512668  0.79166685    -0.02100
C2096       C  0.91547705  0.99966319  0.78961395     0.07600
C2097       C  0.89341234  0.98129208  0.76737209    -0.02200
C2098       C  0.86480305  0.99752124  0.75067885    -0.02200
C2099       C  0.85479728  0.03110674  0.76026262     0.07700
C2100       C  0.88106486  0.05072020  0.77850732    -0.02400
Br2101     Br  0.87675932  0.09968505  0.78593919    -0.01000
Br2102     Br  0.94814573  0.06294808  0.81398120    -0.01000
Br2103     Br  0.84613758  0.97521534  0.71117931    -0.01000
Br2104     Br  0.90193904  0.43334455  0.76089674    -0.01000
C2105       C  0.83771157  0.41865292  0.59631661    -0.02100
C2106       C  0.81011644  0.39818525  0.58147338     0.07600
C2107       C  0.78637076  0.41470628  0.55834660    -0.02200
C2108       C  0.79779652  0.44489051  0.54313840    -0.02200
C2109       C  0.83273586  0.45687469  0.54960184     0.07700
C2110       C  0.84772553  0.44901746  0.58060950    -0.02400
Br2111     Br  0.88633644  0.47714894  0.59712722    -0.01000
Br2112     Br  0.85991266  0.40904433  0.63895755    -0.01000
Br2113     Br  0.76894965  0.46802843  0.01024172    -0.01000
Br2114     Br  0.73716269  0.39935584  0.54889859    -0.01000
C2115       C  0.61507001  0.05310098  0.88014969    -0.02100
C2116       C  0.60023563  0.06299254  0.84898040     0.07600
C2117       C  0.58868278  0.03660940  0.82664081    -0.02200
C2118       C  0.60492911  0.00457569  0.82922649    -0.02200
C2119       C  0.61214385  0.99373978  0.86176235     0.07700
C2120       C  0.62245468  0.01841274  0.88577761    -0.02400
Br2121     Br  0.64421926  0.00388000  0.92696054    -0.01000
Br2122     Br  0.61617059  0.08424987  0.91801775    -0.01000
Br2123     Br  0.60078247  0.97085917  0.79385850    -0.01000
Br2124     Br  0.55761284  0.04514328  0.78877302    -0.01000
C2125       C  0.87456100  0.09183295  0.54418276    -0.02100
C2126       C  0.85779737  0.12312151  0.53727232     0.07600
C2127       C  0.86708735  0.13905434  0.50620318    -0.02200
C2128       C  0.87960904  0.11910129  0.47883679    -0.02200
C2129       C  0.88631274  0.08468269  0.48396809     0.07700
C2130       C  0.88812863  0.07201959  0.51702530    -0.02400
Br2131     Br  0.91028521  0.52859960  0.52504369    -0.01000
Br2132     Br  0.88376380  0.07866622  0.59013873    -0.01000
Br2133     Br  0.88793226  0.13967277  0.93492548    -0.01000
Br2134     Br  0.86426100  0.18769172  0.50116963    -0.01000
C2135       C  0.57504838  0.35431508  0.85406984    -0.02100
C2136       C  0.53695327  0.35469580  0.86204674     0.07600
C2137       C  0.51251516  0.35477433  0.83468831    -0.02200
C2138       C  0.52511228  0.34359182  0.80208327    -0.02200
C2139       C  0.56289576  0.33755990  0.79629809     0.07700
C2140       C  0.58715828  0.35126373  0.82041197    -0.02400
Br2141     Br  0.63836443  0.36106472  0.80918297    -0.01000
Br2142     Br  0.61212852  0.35567539  0.88822112    -0.01000
Br2143     Br  0.49337832  0.34535064  0.76406360    -0.01000
Br2144     Br  0.96592407  0.37760484  0.83939137    -0.01000
C2145       C  0.50749874  0.03226669  0.57509910    -0.02100
C2146       C  0.50189067  0.05033150  0.54502787     0.07600
C2147       C  0.50494530  0.08559941  0.54552437    -0.02200
C2148       C  0.52532792  0.10047995  0.57102120    -0.02200
C2149       C  0.54372762  0.07905108  0.59408733     0.07700
C2150       C  0.52869246  0.04692595  0.60020329    -0.02400
Br2151     Br  0.53209123  0.02552461  0.64366469    -0.01000
Br2152     Br  0.48866803  0.48704605  0.58067736    -0.01000
Br2153     Br  0.52849344  0.14953466  0.57267531    -0.01000
Br2154     Br  0.48370068  0.11292041  0.01100080    -0.01000
C2155       C  0.57620218  0.59259196  0.11281347     0.86200
C2156       C  0.60440891  0.56873811  0.12974615    -0.54000
C2157       C  0.63224564  0.58549153  0.14541401     0.09200
C2158       C  0.62706145  0.62567455  0.14286029     0.20100
C2159       C  0.56103068  0.61611820  0.14067371    -0.54700
C2160       C  0.58559569  0.63496076  0.15663622     0.09300
C2161       C  0.60115761  0.61337114  0.08855804    -0.54300
C2162       C  0.62816458  0.63081987  0.10330096     0.09800
H2163       H  0.60438945  0.54141592  0.12711246     0.14400
H2164       H  0.64816988  0.64071391  0.15585174     0.00100
H2165       H  0.53183168  0.61912432  0.14568575     0.14700
H2166       H  0.59794201  0.61390461  0.06132894     0.14400
C2167       C  0.57158768  0.66771871  0.17745649     0.29800
C2168       C  0.56757742  0.73029809  0.21097751     0.29800
C2169       C  0.59412190  0.69579523  0.16301839    -0.06400
C2170       C  0.53162227  0.68537792  0.17879003    -0.07200
C2171       C  0.57976169  0.66773532  0.21509914    -0.07100
C2172       C  0.59206473  0.72717364  0.17927012    -0.06500
C2173       C  0.52968515  0.71738308  0.19641726    -0.07200
C2174       C  0.57818178  0.69921811  0.23209122    -0.07100
C2175       C  0.59447040  0.75067993  0.15405320    -0.32500
N2176       N  0.59944167  0.73483344  0.12408877     0.14000
C2177       C  0.59651528  0.70185447  0.12921161    -0.32500
H2178       H  0.58715771  0.68443254  0.11037856     0.15900
C2179       C  0.99246474  0.72703319  0.19742712    -0.31500
N2180       N  0.97168891  0.70343302  0.18079459     0.12700
C2181       C  0.99529318  0.67827893  0.16932497    -0.31500
C2182       C  0.56866282  0.69173111  0.26540053    -0.31800
N2183       N  0.56763417  0.65770911  0.27035160     0.13200
H2184       H  0.56134166  0.71029704  0.28482063     0.15900
C2185       C  0.56974698  0.64383347  0.23892718    -0.31800
H2186       H  0.56532462  0.61718137  0.23382459     0.15900
H2187       H  0.98626934  0.65576266  0.15628618     0.15900
H2188       H  0.58433354  0.77596430  0.15703330     0.15900
H2189       H  0.98132707  0.74948297  0.20997888     0.15900
C2190       C  0.57939791  0.81383132  0.26905189     0.86200
C2191       C  0.60131302  0.83439658  0.24224727    -0.54000
C2192       C  0.62452478  0.81629674  0.22156876     0.09200
C2193       C  0.62113510  0.77654891  0.22933706     0.20100
C2194       C  0.55725393  0.78647380  0.24887301    -0.54700
C2195       C  0.57895804  0.76563908  0.22802204     0.09300
C2196       C  0.60701233  0.79125400  0.28732361    -0.54300
C2197       C  0.62997360  0.77298707  0.26759429     0.09800
H2198       H  0.60062375  0.86187385  0.24187681     0.14400
H2199       H  0.63915185  0.76051846  0.21275026     0.00100
H2200       H  0.52832811  0.78147612  0.25350342     0.14700
H2201       H  0.60776574  0.78896110  0.31469541     0.14400
C2202       C  0.66641579  0.56773624  0.16179712     0.29800
C2203       C  0.72840050  0.55036307  0.19656873     0.29800
C2204       C  0.67042840  0.58374037  0.19581277    -0.06400
C2205       C  0.67130995  0.52714066  0.17087590    -0.07200
C2206       C  0.70430639  0.57767355  0.14509698    -0.07100
C2207       C  0.69977470  0.57333406  0.21352801    -0.06500
C2208       C  0.70347644  0.51969862  0.18917143    -0.07200
C2209       C  0.73527206  0.56532163  0.16076842    -0.07100
C2210       C  0.69151314  0.58014207  0.24649595    -0.32500
N2211       N  0.66164381  0.60021198  0.24845713     0.14000
C2212       C  0.64742427  0.60125832  0.21750454    -0.32500
H2213       H  0.62069877  0.60948246  0.21186023     0.15900
C2214       C  0.70322187  0.98577314  0.19819276    -0.31500
N2215       N  0.67276088  0.96985593  0.18659143     0.12700
C2216       C  0.65353310  0.49461678  0.16932732    -0.31500
C2217       C  0.76592874  0.58083808  0.14591226    -0.31800
N2218       N  0.75521256  0.60702741  0.12638471     0.13200
H2219       H  0.79409414  0.57456617  0.15103867     0.15900
C2220       C  0.71787678  0.60726339  0.13010262    -0.31800
H2221       H  0.70209108  0.62998280  0.12880230     0.15900
H2222       H  0.62872726  0.98949923  0.15582917     0.15900
H2223       H  0.70440751  0.56792451  0.26730213     0.15900
H2224       H  0.72493367  0.97306032  0.21126349     0.15900
C2225       C  0.82824685  0.63850193  0.06070165     0.86200
C2226       C  0.84500553  0.66381626  0.08540584    -0.54000
C2227       C  0.82079648  0.67875185  0.10732880     0.09200
C2228       C  0.77900587  0.66754974  0.09992038     0.20100
C2229       C  0.80535790  0.61332321  0.08281047    -0.54700
C2230       C  0.77908033  0.62791180  0.10383301     0.09300
C2231       C  0.79825792  0.65693750  0.04116590    -0.54300
C2232       C  0.77222558  0.67263084  0.06044909     0.09800
H2233       H  0.87446239  0.66669195  0.08767556     0.14400
H2234       H  0.75811479  0.68029284  0.11673243     0.00100
H2235       H  0.80829485  0.58602111  0.08092802     0.14700
H2236       H  0.79671260  0.65613123  0.01385197     0.14400
C2237       C  0.61095287  0.59641444  0.33191471     0.86200
C2238       C  0.57864300  0.61761106  0.31757383    -0.54000
C2239       C  0.58999125  0.64234050  0.29556147     0.09200
C2240       C  0.63140062  0.64362118  0.29027565     0.20100
C2241       C  0.63404657  0.58452344  0.30096311    -0.54700
C2242       C  0.64242777  0.60840205  0.27897542     0.09300
C2243       C  0.63729744  0.62288182  0.34788682    -0.54300
C2244       C  0.64769234  0.64800274  0.32587826     0.09800
H2245       H  0.54988687  0.61144600  0.32181665     0.14400
H2246       H  0.64049184  0.66183703  0.27066436     0.00100
H2247       H  0.64333105  0.55864962  0.29610286     0.14700
H2248       H  0.65163972  0.61945571  0.37107340     0.14400
C2249       C  0.83147832  0.72025492  0.20691496     0.29800
C2250       C  0.83400306  0.69479923  0.14170099     0.29800
C2251       C  0.81751085  0.74352915  0.17955273    -0.06400
C2252       C  0.87174413  0.71224511  0.19249830    -0.07200
C2253       C  0.81305518  0.68682895  0.20105598    -0.07100
C2254       C  0.81958216  0.73079920  0.14635487    -0.06500
C2255       C  0.87356350  0.69855583  0.15875240    -0.07200
C2256       C  0.81444320  0.67395718  0.16814906    -0.07100
C2257       C  0.82893047  0.75811463  0.12641820    -0.32500
N2258       N  0.82828816  0.78714097  0.14466275     0.14000
C2259       C  0.82401540  0.77783147  0.17725527    -0.32500
H2260       H  0.83009587  0.79424890  0.19839902     0.15900
C2261       C  0.91152807  0.69328874  0.15152290    -0.31500
N2262       N  0.93209617  0.70369924  0.17853853     0.12700
C2263       C  0.90786763  0.71518069  0.20331497    -0.31500
C2264       C  0.81823686  0.63944707  0.17052148    -0.31800
N2265       N  0.81797546  0.63115680  0.20297567     0.13200
H2266       H  0.82718985  0.62232476  0.15047148     0.15900
C2267       C  0.81651033  0.65954214  0.22161070    -0.31800
H2268       H  0.82684752  0.66082043  0.24660218     0.15900
H2269       H  0.91592511  0.72483042  0.22769318     0.15900
H2270       H  0.84007756  0.75670867  0.10080889     0.15900
H2271       H  0.92323244  0.68332922  0.12796441     0.15900
C2272       C  0.79789153  0.86508183  0.09695835     0.86200
C2273       C  0.76719942  0.87396324  0.12247165    -0.54000
C2274       C  0.75086597  0.84738618  0.13707086     0.09200
C2275       C  0.76791698  0.81284841  0.12548216     0.20100
C2276       C  0.82545741  0.84273257  0.11626761    -0.54700
C2277       C  0.80898757  0.81576603  0.13190797     0.09300
C2278       C  0.78205862  0.83900836  0.07158177    -0.54300
C2279       C  0.76668439  0.81149384  0.08676946     0.09800
H2280       H  0.75903005  0.89970861  0.12727781     0.14400
H2281       H  0.75485944  0.79040460  0.13745161     0.00100
H2282       H  0.85507779  0.84512481  0.11425755     0.14700
H2283       H  0.78444703  0.84128410  0.04426376     0.14400
C2284       C  0.82032991  0.54938108  0.24827082     0.86200
C2285       C  0.78739468  0.53233559  0.22972732    -0.54000
C2286       C  0.76210039  0.55551596  0.21901561     0.09200
C2287       C  0.77117782  0.59263322  0.23050058     0.20100
C2288       C  0.83430955  0.57615683  0.22329918    -0.54700
C2289       C  0.80890810  0.59905791  0.21575469     0.09100
C2290       C  0.80070674  0.56887891  0.27842872    -0.54300
C2291       C  0.77571466  0.59231281  0.26896004     0.09800
H2292       H  0.78346059  0.50555837  0.22563931     0.14400
H2293       H  0.75202748  0.61285211  0.22263137     0.00100
H2294       H  0.86288608  0.57895154  0.21507738     0.14700
H2295       H  0.80809957  0.56608649  0.30467045     0.14400
C2296       C  0.65577310  0.83396950  0.19887263     0.29800
C2297       C  0.71694862  0.84947123  0.16011698     0.29800
C2298       C  0.65540215  0.82228698  0.16182842    -0.06400
C2299       C  0.66357919  0.87492396  0.19324441    -0.07200
C2300       C  0.69367437  0.82027054  0.21030443    -0.07100
C2301       C  0.68719185  0.82929358  0.14284144    -0.06500
C2302       C  0.69528599  0.88123824  0.17239643    -0.07200
C2303       C  0.72391654  0.83194660  0.19296568    -0.07100
C2304       C  0.67788750  0.83105375  0.10955814    -0.32500
N2305       N  0.64210578  0.82436287  0.10649349     0.14000
C2306       C  0.62775061  0.82250109  0.13845706    -0.32500
H2307       H  0.59874830  0.82521348  0.14431167     0.15900
C2308       C  0.69870538  0.91577471  0.16691142    -0.31500
N2309       N  0.67115395  0.93321664  0.18282280     0.12700
C2310       C  0.64977663  0.90897719  0.19967322    -0.31500
C2311       C  0.75474780  0.81752198  0.20577851    -0.31800
N2312       N  0.74479733  0.79171960  0.22613045     0.13200
H2313       H  0.78223557  0.82622422  0.20069745     0.15900
C2314       C  0.70750375  0.79167130  0.22617292    -0.31800
H2315       H  0.69217889  0.76986364  0.23237393     0.15900
H2316       H  0.62610774  0.91526434  0.21573229     0.15900
H2317       H  0.69541937  0.84015333  0.08923286     0.15900
H2318       H  0.72035222  0.92850167  0.15320791     0.15900
C2319       C  0.58343620  0.77942329  0.04241393     0.86200
C2320       C  0.57379304  0.75594608  0.07228963    -0.54000
C2321       C  0.60271442  0.74991298  0.09188647     0.09200
C2322       C  0.63854466  0.76524529  0.07969710     0.20100
C2323       C  0.60132033  0.81060621  0.06030310    -0.54700
C2324       C  0.62994746  0.80280329  0.07961194     0.09300
C2325       C  0.61518953  0.76060379  0.02255442    -0.54300
C2326       C  0.64433827  0.75333986  0.04209240     0.09800
H2327       H  0.54675335  0.74699700  0.07955210     0.14400
H2328       H  0.66106533  0.75884509  0.09691319     0.00100
H2329       H  0.58981404  0.83585757  0.06175707     0.14700
H2330       H  0.61359230  0.75158842  0.99663912     0.14400
C2331       C  0.81809920  0.77306540  0.29045970     0.86200
C2332       C  0.83986994  0.75252768  0.26299009    -0.54000
C2333       C  0.81828287  0.73317948  0.24287742     0.09200
C2334       C  0.77572770  0.73638429  0.25403160     0.20100
C2335       C  0.79188801  0.79365770  0.26862272    -0.54700
C2336       C  0.76880040  0.77503593  0.24985114     0.09300
C2337       C  0.79554327  0.74811847  0.31137451    -0.54300
C2338       C  0.77191282  0.72983166  0.29413567     0.09800
H2339       H  0.86839308  0.75742967  0.25631250     0.14400
H2340       H  0.75709239  0.72073588  0.23864071     0.00100
H2341       H  0.79251594  0.82113103  0.26727063     0.14700
H2342       H  0.79621404  0.74711942  0.33882321     0.14400
C2343       C  0.73909390  0.69151771  0.04450362     0.29800
C2344       C  0.67767979  0.73062254  0.03370584     0.29800
C2345       C  0.74021378  0.72860769  0.05608893    -0.06400
C2346       C  0.72886832  0.69631708  0.00510399    -0.07200
C2347       C  0.70239669  0.67869738  0.05971973    -0.07100
C2348       C  0.71031896  0.74813475  0.04907444    -0.06500
C2349       C  0.69655140  0.71623884  0.00028619    -0.07200
C2350       C  0.67220810  0.69850832  0.05447868    -0.07100
C2351       C  0.71918548  0.78144880  0.05493331    -0.32500
N2352       N  0.75266882  0.78269285  0.06852512     0.14000
C2353       C  0.76617692  0.75046570  0.06822851    -0.32500
H2354       H  0.79332288  0.74306501  0.07428103     0.15900
C2355       C  0.69238255  0.71909933  0.46535594    -0.31500
N2356       N  0.72036837  0.70283392  0.44779334     0.12700
C2357       C  0.74254164  0.68838347  0.47158259    -0.31500
C2358       C  0.64183827  0.68144324  0.06698525    -0.31800
N2359       N  0.65251408  0.65308824  0.08316991     0.13200
H2360       H  0.61380057  0.68852655  0.06247558     0.15900
C2361       C  0.68878799  0.64917444  0.07389814    -0.31800
H2362       H  0.70362862  0.62555919  0.07365248     0.15900
H2363       H  0.76652371  0.67315233  0.46510590     0.15900
H2364       H  0.70233254  0.80302065  0.04926280     0.15900
H2365       H  0.67021111  0.73249615  0.45362495     0.15900
C2366       C  0.74167153  0.70927503  0.31358590     0.29800
C2367       C  0.68173447  0.66983035  0.32787639     0.29800
C2368       C  0.74320630  0.67294804  0.29985172    -0.06400
C2369       C  0.73294070  0.70288261  0.35372679    -0.07200
C2370       C  0.70450660  0.72292362  0.30280850    -0.07100
C2371       C  0.71318046  0.65299778  0.30717798    -0.06500
C2372       C  0.70150257  0.68230117  0.35997492    -0.07200
C2373       C  0.67476398  0.70310454  0.30967298    -0.07100
C2374       C  0.72490604  0.61969917  0.30354644    -0.32500
N2375       N  0.76007278  0.61859005  0.29132436     0.14000
C2376       C  0.77204303  0.65104988  0.29220978    -0.32500
H2377       H  0.80048443  0.65798448  0.29252515     0.15900
C2378       C  0.69522229  0.67978045  0.39474661    -0.31500
N2379       N  0.72146692  0.69710749  0.41154141     0.12700
C2380       C  0.74433329  0.71161736  0.38703533    -0.31500
C2381       C  0.64429192  0.72015113  0.29865217    -0.31800
N2382       N  0.65478129  0.74886840  0.28288155     0.13200
H2383       H  0.61651078  0.71303015  0.30401939     0.15900
C2384       C  0.69098126  0.75266235  0.28980657    -0.31800
H2385       H  0.70615949  0.77590399  0.28745301     0.15900
H2386       H  0.76683776  0.72829342  0.39278185     0.15900
H2387       H  0.70956596  0.59788260  0.31188255     0.15900
H2388       H  0.67239187  0.66692368  0.40702048     0.15900
N2389       N  0.00475514  0.51675675  0.46183366    -0.06400
N2390       N  0.99463796  0.54193189  0.48241700    -0.58500
N2391       N  0.54803309  0.95849827  0.41533219    -0.06000
N2392       N  0.58182373  0.95446985  0.40280490    -0.60600
N2393       N  0.02876883  0.47744776  0.39565331    -0.05600
N2394       N  0.04796005  0.48511843  0.36860884    -0.58500
N2395       N  0.52168258  0.99336863  0.47911273    -0.05300
N2396       N  0.52372474  0.00205732  0.51099744    -0.61000
C2397       C  0.50664597  0.53220255  0.01297008     0.95800
C2398       C  0.58165027  0.47201655  0.37358590     0.95600
N2399       N  0.99000566  0.87526172  0.44025644    -0.06600
N2400       N  0.99079641  0.85591794  0.41245555    -0.59100
N2401       N  0.50101493  0.92553949  0.51073419    -0.04700
N2402       N  0.52200933  0.91483022  0.53496871    -0.60300
N2403       N  0.97011227  0.90882187  0.51156991    -0.06600
N2404       N  0.97011525  0.88692682  0.53621042    -0.59300
N2405       N  0.52134927  0.89149041  0.44226640    -0.04300
N2406       N  0.54364135  0.88282466  0.41705958    -0.60400
Mn2407     Mn  0.52422185  0.94214332  0.46268802     1.18400
C2408       C  0.52488971  0.86069922  0.39844404     0.97900
C2409       C  0.50462377  0.88721283  0.04649119     0.98600
N2410       N  0.95212918  0.48756881  0.36691961    -0.06600
N2411       N  0.96003906  0.49303433  0.33470206    -0.62900
N2412       N  0.90000182  0.01433112  0.43346034    -0.05400
N2413       N  0.87592595  0.03379702  0.44991464    -0.63600
N2414       N  0.93122737  0.53017922  0.42943984    -0.06100
N2415       N  0.92927742  0.56080982  0.44259908    -0.63200
N2416       N  0.92050591  0.97210674  0.37010378    -0.05000
N2417       N  0.90644139  0.46661364  0.34035942    -0.63900
Mn2418     Mn  0.98025242  0.50420706  0.41251203     1.10700
C2419       C  0.93060124  0.48086036  0.31825357     0.99100
C2420       C  0.89525643  0.56377666  0.95494391     0.99200
N2421       N  0.89364382  0.92575687  0.48781238    -0.06100
N2422       N  0.88320358  0.92754522  0.51981279    -0.61500
N2423       N  0.89490675  0.90881011  0.40528314    -0.05400
N2424       N  0.88063204  0.89537591  0.37830744    -0.58200
N2425       N  0.91020027  0.88548623  0.42334470    -0.06700
N2426       N  0.90587138  0.85529768  0.40998615    -0.61100
N2427       N  0.87671715  0.94903192  0.47045330    -0.05700
N2428       N  0.85384570  0.96674025  0.49026429    -0.58200
Mn2429     Mn  0.94045001  0.89745347  0.46654896     1.20200
Mn2430     Mn  0.89614774  0.96121293  0.41943147     1.10100
Cl2431     Cl  0.96007535  0.95144717  0.44042897    -0.86200
C2432       C  0.85888581  0.95355290  0.02072317     0.96100
C2433       C  0.88752238  0.86207322  0.38191007     0.95900
C2434       C  0.81533713  0.81946797  0.33405837    -0.02100
C2435       C  0.83709299  0.79498914  0.31541211     0.07600
C2436       C  0.87190286  0.78596997  0.32775960    -0.02200
C2437       C  0.88846318  0.80745392  0.35098971    -0.02200
C2438       C  0.86939847  0.83657794  0.36260065     0.07700
C2439       C  0.83212876  0.84128476  0.35631967    -0.02400
Br2440     Br  0.80279718  0.87573344  0.38037124    -0.01000
Br2441     Br  0.76165552  0.82092316  0.33440088    -0.01000
Br2442     Br  0.93646116  0.79601888  0.36738564    -0.01000
Br2443     Br  0.89440727  0.74201036  0.31906613    -0.01000
C2444       C  0.50480014  0.82459326  0.05164869    -0.02100
C2445       C  0.52283595  0.85408509  0.03971464     0.07600
C2446       C  0.55005141  0.85021349  0.01277318    -0.02200
C2447       C  0.55909030  0.81749446  0.00071769    -0.02200
C2448       C  0.55071482  0.79029617  0.02181235     0.07700
C2449       C  0.51687432  0.79281076  0.03965623    -0.02400
Br2450     Br  0.48569632  0.75370605  0.04291167    -0.01000
Br2451     Br  0.46369393  0.82708391  0.08371616    -0.01000
Br2452     Br  0.59225079  0.81036005  0.96260781    -0.01000
Br2453     Br  0.58274243  0.88619839  0.49796680    -0.01000
C2454       C  0.91163999  0.53454992  0.29189333    -0.02100
C2455       C  0.91461354  0.49902158  0.29001181     0.07600
C2456       C  0.89247862  0.48081732  0.26768780    -0.02200
C2457       C  0.86434042  0.49734633  0.25064118    -0.02200
C2458       C  0.85473001  0.53106238  0.26000967     0.07700
C2459       C  0.88112128  0.55046774  0.27827549    -0.02400
Br2460     Br  0.87749776  0.59953899  0.28516008    -0.01000
Br2461     Br  0.94771070  0.56208365  0.31462827    -0.01000
Br2462     Br  0.84607143  0.47536456  0.21080269    -0.01000
Br2463     Br  0.90021080  0.93271939  0.26152287    -0.01000
C2464       C  0.83760564  0.91884218  0.09630825    -0.02100
C2465       C  0.80989441  0.89847507  0.08156146     0.07600
C2466       C  0.78630326  0.91499027  0.05832345    -0.02200
C2467       C  0.79801056  0.94495148  0.04285003    -0.02200
C2468       C  0.83301884  0.95680487  0.04929449     0.07700
C2469       C  0.84806583  0.94892000  0.08029308    -0.02400
Br2470     Br  0.88734930  0.97649654  0.09640838    -0.01000
Br2471     Br  0.85928777  0.90949809  0.13924666    -0.01000
Br2472     Br  0.76851211  0.96812923  0.51081302    -0.01000
Br2473     Br  0.73700011  0.89984385  0.04898017    -0.01000
C2474       C  0.61478200  0.55338733  0.38054902    -0.02100
C2475       C  0.60010646  0.56316384  0.34926931     0.07600
C2476       C  0.58854168  0.53670839  0.32703961    -0.02200
C2477       C  0.60477012  0.50469818  0.32978362    -0.02200
C2478       C  0.61181790  0.49394650  0.36237888     0.07700
C2479       C  0.62192372  0.51869248  0.38641002    -0.02400
Br2480     Br  0.64322937  0.50428823  0.42785113    -0.01000
Br2481     Br  0.61604877  0.58476365  0.41822526    -0.01000
Br2482     Br  0.60104160  0.47095499  0.29439352    -0.01000
Br2483     Br  0.55753826  0.54509661  0.28909065    -0.01000
C2484       C  0.87438747  0.59205351  0.04403998    -0.02100
C2485       C  0.85775152  0.62343853  0.03726697     0.07600
C2486       C  0.86753456  0.63970066  0.00649259    -0.02200
C2487       C  0.88042909  0.62001860  0.97904958    -0.02200
C2488       C  0.88689884  0.58550089  0.98387368     0.07700
C2489       C  0.88827038  0.57250214  0.01682499    -0.02400
Br2490     Br  0.91039537  0.02902578  0.02465404    -0.01000
Br2491     Br  0.88318465  0.57844418  0.08994227    -0.01000
Br2492     Br  0.88620245  0.63822345  0.43436956    -0.01000
Br2493     Br  0.86491667  0.68840842  0.00202751    -0.01000
C2494       C  0.57482989  0.85388412  0.35451521    -0.02100
C2495       C  0.53674906  0.85414053  0.36257595     0.07600
C2496       C  0.51227186  0.85435650  0.33524599    -0.02200
C2497       C  0.52483964  0.84340183  0.30254294    -0.02200
C2498       C  0.56262743  0.83745662  0.29665727     0.07700
C2499       C  0.58688102  0.85107088  0.32081681    -0.02400
Br2500     Br  0.63801448  0.86107789  0.30953572    -0.01000
Br2501     Br  0.61198851  0.85521405  0.38857707    -0.01000
Br2502     Br  0.49311956  0.84557163  0.26454145    -0.01000
Br2503     Br  0.96572052  0.87721680  0.34014435    -0.01000
C2504       C  0.50771369  0.53217332  0.07513454    -0.02100
C2505       C  0.50186802  0.55032042  0.04516892     0.07600
C2506       C  0.50461055  0.58560219  0.04583190    -0.02200
C2507       C  0.52512300  0.60049716  0.07122882    -0.02200
C2508       C  0.54373865  0.57907993  0.09416378     0.07700
C2509       C  0.52893832  0.54683905  0.10020349    -0.02400
Br2510     Br  0.53271623  0.52519781  0.14351377    -0.01000
Br2511     Br  0.48913932  0.98685384  0.08060163    -0.01000
Br2512     Br  0.52813613  0.64955620  0.07290629    -0.01000
Br2513     Br  0.48480762  0.61291268  0.51029093    -0.01000
C2514       C  0.57623923  0.59245935  0.61275822     0.86200
C2515       C  0.60437137  0.56856419  0.62975716    -0.54000
C2516       C  0.63229229  0.58529853  0.64535922     0.09200
C2517       C  0.62718008  0.62548600  0.64275116     0.20100
C2518       C  0.56112945  0.61605389  0.64057949    -0.54700
C2519       C  0.58573764  0.63485217  0.65653361     0.09300
C2520       C  0.60127153  0.61313534  0.58847382    -0.54300
C2521       C  0.62828689  0.63058351  0.60318821     0.09800
H2522       H  0.60419550  0.54123187  0.62724822     0.14400
H2523       H  0.64831712  0.64051348  0.65571751     0.00100
H2524       H  0.53194051  0.61911028  0.64559136     0.14700
H2525       H  0.59808359  0.61362117  0.56123810     0.14400
C2526       C  0.57179454  0.66762897  0.67735966     0.29800
C2527       C  0.56781914  0.73021699  0.71086201     0.29800
C2528       C  0.59443632  0.69566235  0.66297685    -0.06400
C2529       C  0.53186212  0.68534659  0.67862355    -0.07200
C2530       C  0.57989304  0.66764158  0.71502564    -0.07100
C2531       C  0.59238792  0.72703958  0.67921744    -0.06500
C2532       C  0.52993947  0.71735345  0.69624060    -0.07200
C2533       C  0.57833321  0.69913505  0.73200545    -0.07100
C2534       C  0.59495789  0.75054188  0.65401660    -0.32500
N2535       N  0.60005795  0.73469478  0.62407144     0.14000
C2536       C  0.59699234  0.70172254  0.62918035    -0.32500
H2537       H  0.58758098  0.68434714  0.61033271     0.15900
C2538       C  0.99270692  0.72697718  0.69732066    -0.31500
N2539       N  0.97191443  0.70336352  0.68072399     0.12700
C2540       C  0.99551678  0.67822303  0.66922512    -0.31500
C2541       C  0.56875869  0.69168123  0.76530660    -0.31800
N2542       N  0.56768475  0.65766431  0.77027513     0.13200
H2543       H  0.56144302  0.71026431  0.78470924     0.15900
C2544       C  0.56981306  0.64376615  0.73885880    -0.31800
H2545       H  0.56538601  0.61711067  0.73376939     0.15900
H2546       H  0.98646956  0.65568696  0.65624361     0.15900
H2547       H  0.58482706  0.77583709  0.65696586     0.15900
H2548       H  0.98157095  0.74940190  0.70992261     0.15900
C2549       C  0.57964018  0.81383025  0.76880395     0.86200
C2550       C  0.60156010  0.83432941  0.74197681    -0.54000
C2551       C  0.62478129  0.81618702  0.72137116     0.09200
C2552       C  0.62137785  0.77645973  0.72919868     0.20100
C2553       C  0.55749625  0.78643339  0.74867774    -0.54700
C2554       C  0.57920472  0.76556073  0.72787903     0.09300
C2555       C  0.60722424  0.79128661  0.78714843    -0.54300
C2556       C  0.63018107  0.77296647  0.76746238     0.09800
H2557       H  0.60088118  0.86180439  0.74155201     0.14400
H2558       H  0.63939749  0.76039834  0.71265112     0.00100
H2559       H  0.52857500  0.78143050  0.75330851     0.14700
H2560       H  0.60795172  0.78905690  0.81452889     0.14400
C2561       C  0.66646732  0.56755741  0.66177665     0.29800
C2562       C  0.72843029  0.55023060  0.69663332     0.29800
C2563       C  0.67046744  0.58362500  0.69576913    -0.06400
C2564       C  0.67135469  0.52698450  0.67091893    -0.07200
C2565       C  0.70438972  0.57744810  0.64508522    -0.07100
C2566       C  0.69980803  0.57325950  0.71350930    -0.06500
C2567       C  0.70349408  0.51957067  0.68926822    -0.07200
C2568       C  0.73534007  0.56511082  0.66081457    -0.07100
C2569       C  0.69159185  0.58022421  0.74644559    -0.32500
N2570       N  0.66175487  0.60033441  0.74836113     0.14000
C2571       C  0.64750390  0.60125496  0.71741330    -0.32500
H2572       H  0.62076343  0.60945477  0.71176002     0.15900
C2573       C  0.70328457  0.98563939  0.69825135    -0.31500
N2574       N  0.67288915  0.96969262  0.68655858     0.12700
C2575       C  0.65364780  0.49443865  0.66928939    -0.31500
C2576       C  0.76602260  0.58061330  0.64600815    -0.31800
N2577       N  0.75534313  0.60678769  0.62645437     0.13200
H2578       H  0.79417507  0.57435740  0.65120153     0.15900
C2579       C  0.71800056  0.60702374  0.63009028    -0.31800
H2580       H  0.70222864  0.62974593  0.62874445     0.15900
H2581       H  0.62890583  0.98928882  0.65571033     0.15900
H2582       H  0.70445796  0.56803696  0.76727430     0.15900
H2583       H  0.72500170  0.97293850  0.71132141     0.15900
C2584       C  0.82836625  0.63821744  0.56076360     0.86200
C2585       C  0.84515000  0.66358168  0.58542094    -0.54000
C2586       C  0.82096212  0.67850998  0.60738680     0.09200
C2587       C  0.77916226  0.66729434  0.59999834     0.20100
C2588       C  0.80554903  0.61305248  0.58294301    -0.54700
C2589       C  0.77925518  0.62765766  0.60394221     0.09300
C2590       C  0.79830805  0.65656303  0.54125439    -0.54300
C2591       C  0.77234721  0.67232112  0.56052021     0.09800
H2592       H  0.87460914  0.66647236  0.58764778     0.14400
H2593       H  0.75827377  0.68004692  0.61680546     0.00100
H2594       H  0.80855660  0.58575230  0.58112119     0.14700
H2595       H  0.79659878  0.65560113  0.51395881     0.14400
C2596       C  0.61102536  0.59633482  0.83176736     0.86200
C2597       C  0.57869873  0.61752638  0.81745486    -0.54000
C2598       C  0.59002922  0.64231136  0.79549881     0.09200
C2599       C  0.63143816  0.64365726  0.79024793     0.20100
C2600       C  0.63415876  0.58454943  0.80081437    -0.54700
C2601       C  0.64251694  0.60847488  0.77888081     0.09300
C2602       C  0.63731535  0.62281013  0.84782375    -0.54300
C2603       C  0.64768462  0.64800795  0.82588139     0.09800
H2604       H  0.54994609  0.61131815  0.82166252     0.14400
H2605       H  0.64051283  0.66189896  0.77065973     0.00100
H2606       H  0.64349019  0.55869863  0.79590695     0.14700
H2607       H  0.65161321  0.61936984  0.87103532     0.14400
C2608       C  0.83169729  0.72008787  0.70700359     0.29800
C2609       C  0.83419565  0.69457269  0.64177390     0.29800
C2610       C  0.81774694  0.74334379  0.67961632    -0.06400
C2611       C  0.87195841  0.71204143  0.69257229    -0.07200
C2612       C  0.81323957  0.68668009  0.70114849    -0.07100
C2613       C  0.81981505  0.73058925  0.64641906    -0.06500
C2614       C  0.87375763  0.69832938  0.65882742    -0.07200
C2615       C  0.81461815  0.67377549  0.66824980    -0.07100
C2616       C  0.82920859  0.75788461  0.62647373    -0.32500
N2617       N  0.82857298  0.78692039  0.64469776     0.14000
C2618       C  0.82427334  0.77763880  0.67729622    -0.32500
H2619       H  0.83035595  0.79406925  0.69843089     0.15900
C2620       C  0.91172054  0.69311980  0.65155441    -0.31500
N2621       N  0.93231319  0.70357990  0.67853502     0.12700
C2622       C  0.90810028  0.71504427  0.70333659    -0.31500
C2623       C  0.81833263  0.63926328  0.67066392    -0.31800
N2624       N  0.81800507  0.63101438  0.70313292     0.13200
H2625       H  0.82727014  0.62210398  0.65064337     0.15900
C2626       C  0.81660486  0.65941650  0.72173754    -0.31800
H2627       H  0.82692077  0.66070291  0.74673488     0.15900
H2628       H  0.91617728  0.72475127  0.72768795     0.15900
H2629       H  0.84032075  0.75646336  0.60084720     0.15900
H2630       H  0.92340668  0.68318240  0.62798020     0.15900
C2631       C  0.79817552  0.86478442  0.59688051     0.86200
C2632       C  0.76752243  0.87372663  0.62242185    -0.54000
C2633       C  0.75120200  0.84719013  0.63707545     0.09200
C2634       C  0.76820667  0.81261748  0.62552702     0.20100
C2635       C  0.82575382  0.84244474  0.61618421    -0.54700
C2636       C  0.80928191  0.81552993  0.63190936     0.09300
C2637       C  0.78229533  0.83867417  0.57156497    -0.54300
C2638       C  0.76692948  0.81118562  0.58681451     0.09800
H2639       H  0.75932260  0.89947839  0.62720130     0.14400
H2640       H  0.75514777  0.79020295  0.63754829     0.00100
H2641       H  0.85537568  0.84476266  0.61407659     0.14700
H2642       H  0.78466359  0.84089907  0.54424083     0.14400
C2643       C  0.82029371  0.54926064  0.74849157     0.86200
C2644       C  0.78742410  0.53220680  0.72984204    -0.54000
C2645       C  0.76212297  0.55538668  0.71911043     0.09200
C2646       C  0.77117396  0.59250866  0.73062901     0.20100
C2647       C  0.83430797  0.57607129  0.72356915    -0.54700
C2648       C  0.80892140  0.59894128  0.71595574     0.09100
C2649       C  0.80052968  0.56868396  0.77861655    -0.54300
C2650       C  0.77562464  0.59217336  0.76910384     0.09800
H2651       H  0.78350703  0.50543534  0.72572936     0.14400
H2652       H  0.75205694  0.61273974  0.72272723     0.00100
H2653       H  0.86290310  0.57891100  0.71541835     0.14700
H2654       H  0.80781292  0.56583835  0.80488044     0.14400
C2655       C  0.65605939  0.83383004  0.69873760     0.29800
C2656       C  0.71727842  0.84934329  0.66008828     0.29800
C2657       C  0.65575809  0.82213887  0.66171074    -0.06400
C2658       C  0.66384175  0.87477628  0.69311942    -0.07200
C2659       C  0.69392967  0.82014065  0.71024066    -0.07100
C2660       C  0.68757628  0.82914909  0.64277827    -0.06500
C2661       C  0.69557764  0.88111167  0.67232161    -0.07200
C2662       C  0.72419382  0.83184387  0.69295332    -0.07100
C2663       C  0.67836114  0.83087561  0.60947742    -0.32500
N2664       N  0.64259575  0.82418782  0.60637126     0.14000
C2665       C  0.62816046  0.82235580  0.63830003    -0.32500
H2666       H  0.59914427  0.82506452  0.64409212     0.15900
C2667       C  0.69897515  0.91565536  0.66686048    -0.31500
N2668       N  0.67136136  0.93306053  0.68273784     0.12700
C2669       C  0.64998116  0.90879982  0.69953916    -0.31500
C2670       C  0.75499475  0.81734592  0.70571694    -0.31800
N2671       N  0.74501415  0.79148369  0.72597525     0.13200
H2672       H  0.78248997  0.82605182  0.70067911     0.15900
C2673       C  0.70772690  0.79147086  0.72601829    -0.31800
H2674       H  0.69239358  0.76965944  0.73220866     0.15900
H2675       H  0.62627735  0.91505861  0.71556239     0.15900
H2676       H  0.69593454  0.83992741  0.58916330     0.15900
H2677       H  0.72065968  0.92839144  0.65320462     0.15900
C2678       C  0.58377078  0.77933061  0.54248382     0.86200
C2679       C  0.57423799  0.75584909  0.57238648    -0.54000
C2680       C  0.60322773  0.74978129  0.59187219     0.09200
C2681       C  0.63901239  0.76508546  0.57957238     0.20100
C2682       C  0.60178399  0.81047497  0.56028980    -0.54700
C2683       C  0.63046498  0.80265177  0.57948477     0.09300
C2684       C  0.61542859  0.76046897  0.52250150    -0.54300
C2685       C  0.64464889  0.75315304  0.54196130     0.09800
H2686       H  0.54723153  0.74690595  0.57975500     0.14400
H2687       H  0.66157141  0.75867216  0.59674160     0.00100
H2688       H  0.59030474  0.83572977  0.56184278     0.14700
H2689       H  0.61371806  0.75148018  0.49658861     0.14400
C2690       C  0.81816699  0.77310846  0.79045400     0.86200
C2691       C  0.84001102  0.75246747  0.76308212    -0.54000
C2692       C  0.81847809  0.73303433  0.74298140     0.09200
C2693       C  0.77590799  0.73623440  0.75408998     0.20100
C2694       C  0.79199837  0.79356797  0.76849158    -0.54700
C2695       C  0.76896135  0.77486642  0.74977073     0.09300
C2696       C  0.79557481  0.74823622  0.81144347    -0.54300
C2697       C  0.77202692  0.72980656  0.79422149     0.09800
H2698       H  0.86854427  0.75736348  0.75643340     0.14400
H2699       H  0.75730691  0.72052442  0.73872608     0.00100
H2700       H  0.79262068  0.82103264  0.76700953     0.14700
H2701       H  0.79616703  0.74738729  0.83890025     0.14400
C2702       C  0.73927010  0.69120665  0.54449473     0.29800
C2703       C  0.67793472  0.73036437  0.53356164     0.29800
C2704       C  0.74042662  0.72830172  0.55603909    -0.06400
C2705       C  0.72910714  0.69597328  0.50505469    -0.07200
C2706       C  0.70255410  0.67843467  0.55967092    -0.07100
C2707       C  0.71060752  0.74786342  0.54890940    -0.06500
C2708       C  0.69682087  0.71592701  0.50018497    -0.07200
C2709       C  0.67239318  0.69825930  0.55436477    -0.07100
C2710       C  0.71949430  0.78116703  0.55483929    -0.32500
N2711       N  0.75288492  0.78235591  0.56862113     0.14000
C2712       C  0.76633045  0.75010612  0.56837696    -0.32500
H2713       H  0.79339284  0.74264211  0.57462375     0.15900
C2714       C  0.69206936  0.71940045  0.96545511    -0.31500
N2715       N  0.72006435  0.70316419  0.94786794     0.12700
C2716       C  0.74228133  0.68874491  0.97163216    -0.31500
C2717       C  0.64199336  0.68118322  0.56681247    -0.31800
N2718       N  0.65263804  0.65282604  0.58302613     0.13200
H2719       H  0.61396194  0.68828817  0.56229001     0.15900
C2720       C  0.68892424  0.64891172  0.57382491    -0.31800
H2721       H  0.70376454  0.62530038  0.57361738     0.15900
H2722       H  0.76627342  0.67353660  0.96513623     0.15900
H2723       H  0.70269228  0.80276810  0.54913778     0.15900
H2724       H  0.66986399  0.73276911  0.95374112     0.15900
C2725       C  0.74174161  0.70926001  0.81367198     0.29800
C2726       C  0.68172767  0.66985146  0.82793255     0.29800
C2727       C  0.74329100  0.67287560  0.80006042    -0.06400
C2728       C  0.73285502  0.70300258  0.85381388    -0.07200
C2729       C  0.70461358  0.72286321  0.80274970    -0.07100
C2730       C  0.71323679  0.65296134  0.80737846    -0.06500
C2731       C  0.70138807  0.68244055  0.86004502    -0.07200
C2732       C  0.67483696  0.70307488  0.80961190    -0.07100
C2733       C  0.72487503  0.61964498  0.80369945    -0.32500
N2734       N  0.76002902  0.61849138  0.79145003     0.14000
C2735       C  0.77207652  0.65093363  0.79236407    -0.32500
H2736       H  0.80052656  0.65782075  0.79262597     0.15900
C2737       C  0.69498248  0.68004789  0.89481086    -0.31500
N2738       N  0.72117219  0.69743536  0.91161730     0.12700
C2739       C  0.74413605  0.71184550  0.88712762    -0.31500
C2740       C  0.64439284  0.72015461  0.79858101    -0.31800
N2741       N  0.65493537  0.74884124  0.78278991     0.13200
H2742       H  0.61659157  0.71307947  0.80394933     0.15900
C2743       C  0.69113433  0.75260220  0.78971357    -0.31800
H2744       H  0.70633564  0.77583282  0.78734733     0.15900
H2745       H  0.76665117  0.72850771  0.89288388     0.15900
H2746       H  0.70947443  0.59784613  0.81197233     0.15900
H2747       H  0.67212799  0.66720259  0.90706533     0.15900
N2748       N  0.00528200  0.51723573  0.96178799    -0.06400
N2749       N  0.99506749  0.54229958  0.98246798    -0.58500
N2750       N  0.54841971  0.95898115  0.91513573    -0.06000
N2751       N  0.58206640  0.95456233  0.90239757    -0.60600
N2752       N  0.02920769  0.47802526  0.89551030    -0.05600
N2753       N  0.04825876  0.48537051  0.86829494    -0.58500
N2754       N  0.52211270  0.99373998  0.97901295    -0.05300
N2755       N  0.52398183  0.00225520  0.01095691    -0.61000
C2756       C  0.50640448  0.53201562  0.51291807     0.95800
C2757       C  0.58186753  0.47201393  0.87312173     0.95600
N2758       N  0.99014937  0.87587033  0.93965941    -0.06600
N2759       N  0.99091461  0.85659393  0.91181917    -0.59100
N2760       N  0.50118846  0.92579073  0.01034798    -0.04700
N2761       N  0.52205452  0.91483683  0.03457205    -0.60300
N2762       N  0.97019451  0.90921827  0.01103598    -0.06600
N2763       N  0.96998522  0.88721686  0.03557838    -0.59300
N2764       N  0.52152835  0.89202156  0.94174789    -0.04300
N2765       N  0.54381632  0.88339185  0.91652855    -0.60400
Mn2766     Mn  0.52453694  0.94255896  0.96240381     1.18400
C2767       C  0.52502752  0.86134422  0.89785850     0.97900
C2768       C  0.50479095  0.88717178  0.54705254     0.98600
N2769       N  0.95271493  0.48857326  0.86669487    -0.06600
N2770       N  0.96076432  0.49395321  0.83448133    -0.62900
N2771       N  0.90058002  0.01525831  0.93324316    -0.05400
N2772       N  0.87648592  0.03479807  0.94958403    -0.63600
N2773       N  0.93185902  0.53104482  0.92933266    -0.06100
N2774       N  0.92993172  0.56168717  0.94248628    -0.63200
N2775       N  0.92109290  0.97309427  0.86980515    -0.05000
N2776       N  0.90720448  0.46744568  0.84001855    -0.63900
Mn2777     Mn  0.98082209  0.50496076  0.91238805     1.10700
C2778       C  0.93143526  0.48164779  0.81795214     0.99100
C2779       C  0.89465173  0.56280897  0.45517482     0.99200
N2780       N  0.89392215  0.92631991  0.98725479    -0.06100
N2781       N  0.88344310  0.92781059  0.01924647    -0.61500
N2782       N  0.89512752  0.90974464  0.90469364    -0.05400
N2783       N  0.88065782  0.89636072  0.87777054    -0.58200
N2784       N  0.91041893  0.88635511  0.92267234    -0.06700
N2785       N  0.90590740  0.85619590  0.90932489    -0.61100
N2786       N  0.87705340  0.94976359  0.97007015    -0.05700
N2787       N  0.85414556  0.96729637  0.99001686    -0.58200
Mn2788     Mn  0.94064662  0.89808535  0.96592683     1.20200
Mn2789     Mn  0.89656953  0.96213829  0.91906110     1.10100
Cl2790     Cl  0.96044454  0.95213955  0.94008554    -0.86200
C2791       C  0.85863065  0.95329959  0.52108243     0.96100
C2792       C  0.88746065  0.86302522  0.88132348     0.95900
C2793       C  0.81532654  0.81995963  0.83362992    -0.02100
C2794       C  0.83708035  0.79526383  0.81528329     0.07600
C2795       C  0.87189104  0.78643987  0.82771133    -0.02200
C2796       C  0.88842667  0.80818851  0.85072050    -0.02200
C2797       C  0.86939454  0.83749379  0.86195525     0.07700
C2798       C  0.83213615  0.84213870  0.85554472    -0.02400
Br2799     Br  0.80277984  0.87692844  0.87904581    -0.01000
Br2800     Br  0.76163933  0.82129215  0.83402843    -0.01000
Br2801     Br  0.93633349  0.79679749  0.86736378    -0.01000
Br2802     Br  0.89442475  0.74242956  0.81941049    -0.01000
C2803       C  0.50537151  0.82462057  0.55245946    -0.02100
C2804       C  0.52320772  0.85412759  0.54035441     0.07600
C2805       C  0.55023514  0.85029850  0.51325364    -0.02200
C2806       C  0.55918512  0.81759391  0.50107146    -0.02200
C2807       C  0.55091388  0.79032757  0.52211634     0.07700
C2808       C  0.51723059  0.79286496  0.54022225    -0.02400
Br2809     Br  0.48596824  0.75383592  0.54361388    -0.01000
Br2810     Br  0.46485656  0.82709379  0.58515243    -0.01000
Br2811     Br  0.59220955  0.81053073  0.46287404    -0.01000
Br2812     Br  0.58254727  0.88608329  0.99740700    -0.01000
C2813       C  0.91202116  0.53512881  0.79166820    -0.02100
C2814       C  0.91547751  0.49966539  0.78961513     0.07600
C2815       C  0.89341369  0.48129404  0.76737267    -0.02200
C2816       C  0.86480388  0.49752262  0.75067955    -0.02200
C2817       C  0.85479754  0.53110807  0.76026319     0.07700
C2818       C  0.88106478  0.55072195  0.77850797    -0.02400
Br2819     Br  0.87675898  0.59968692  0.78593872    -0.01000
Br2820     Br  0.94814446  0.56295063  0.81398347    -0.01000
Br2821     Br  0.84613812  0.47521596  0.71118050    -0.01000
Br2822     Br  0.90193520  0.93334212  0.76089725    -0.01000
C2823       C  0.83771298  0.91865402  0.59631711    -0.02100
C2824       C  0.81011744  0.89818675  0.58147386     0.07600
C2825       C  0.78637179  0.91470834  0.55834747    -0.02200
C2826       C  0.79779774  0.94489271  0.54313961    -0.02200
C2827       C  0.83273712  0.95687672  0.54960319     0.07700
C2828       C  0.84772677  0.94901898  0.58061068    -0.02400
Br2829     Br  0.88633671  0.97715111  0.59712945    -0.01000
Br2830     Br  0.85991503  0.90904435  0.63895729    -0.01000
Br2831     Br  0.76894960  0.96803104  0.01024295    -0.01000
Br2832     Br  0.73716342  0.89935866  0.54889985    -0.01000
C2833       C  0.61506934  0.55310463  0.88015284    -0.02100
C2834       C  0.60023611  0.56299450  0.84898251     0.07600
C2835       C  0.58868415  0.53661037  0.82664385    -0.02200
C2836       C  0.60493119  0.50457725  0.82923107    -0.02200
C2837       C  0.61214455  0.49374268  0.86176766     0.07700
C2838       C  0.62245363  0.51841667  0.88578268    -0.02400
Br2839     Br  0.64421430  0.50388575  0.92696805    -0.01000
Br2840     Br  0.61616879  0.58425557  0.91801939    -0.01000
Br2841     Br  0.60078725  0.47085962  0.79386383    -0.01000
Br2842     Br  0.55761408  0.54514218  0.78877578    -0.01000
C2843       C  0.87456027  0.59183289  0.54418309    -0.02100
C2844       C  0.85779712  0.62312157  0.53727233     0.07600
C2845       C  0.86708642  0.63905342  0.50620256    -0.02200
C2846       C  0.87960663  0.61909939  0.47883631    -0.02200
C2847       C  0.88630936  0.58468063  0.48396819     0.07700
C2848       C  0.88812638  0.57201842  0.51702577    -0.02400
Br2849     Br  0.91028777  0.02860077  0.52504267    -0.01000
Br2850     Br  0.88376479  0.57866802  0.59013922    -0.01000
Br2851     Br  0.88793025  0.63967160  0.93492534    -0.01000
Br2852     Br  0.86426206  0.68769080  0.50116857    -0.01000
C2853       C  0.57504762  0.85431421  0.85406895    -0.02100
C2854       C  0.53695239  0.85469492  0.86204553     0.07600
C2855       C  0.51251467  0.85477471  0.83468680    -0.02200
C2856       C  0.52511228  0.84359324  0.80208152    -0.02200
C2857       C  0.56289578  0.83756134  0.79629675     0.07700
C2858       C  0.58715781  0.85126486  0.82041104    -0.02400
Br2859     Br  0.63836377  0.86106704  0.80918255    -0.01000
Br2860     Br  0.61212749  0.85567142  0.88822052    -0.01000
Br2861     Br  0.49337948  0.84535418  0.76406113    -0.01000
Br2862     Br  0.96592398  0.87760622  0.83939007    -0.01000
C2863       C  0.50749623  0.53226927  0.57510041    -0.02100
C2864       C  0.50188809  0.55033345  0.54502886     0.07600
C2865       C  0.50494470  0.58560120  0.54552425    -0.02200
C2866       C  0.52532909  0.60048157  0.57101997    -0.02200
C2867       C  0.54372818  0.57905259  0.59408645     0.07700
C2868       C  0.52869102  0.54692852  0.60020384    -0.02400
Br2869     Br  0.53208900  0.52552847  0.64366601    -0.01000
Br2870     Br  0.48867084  0.98704332  0.58067504    -0.01000
Br2871     Br  0.52849724  0.64953614  0.57267205    -0.01000
Br2872     Br  0.48369889  0.61292148  0.01100280    -0.01000
loop_ 
_geom_bond_atom_site_label_1 
_geom_bond_atom_site_label_2 
_geom_bond_distance 
_geom_bond_site_symmetry_2 
_ccdc_geom_bond_type 
C1            C2   1.561       .  S
C1            C7   1.546       .  S
C1            C5   1.522       .  S
C1          C354   1.508       .  S
C2            H9   1.082       .  S
C2            C3   1.372       .  D
C3            C4   1.601       .  S
C3           C48   1.584       .  S
C4            C8   1.578       .  S
C4            C6   1.629       .  S
C4           H10   1.108       .  S
C5           H11   1.082       .  S
C5            C6   1.334       .  D
C6           C13   1.598       .  S
C7           H12   1.087       .  S
C7            C8   1.346       .  D
C8          N205   1.474       .  S
C13          C15   1.491       .  S
C13          C17   1.526       .  S
C13          C16   1.610       .  S
C14          C41   1.604       .  S
C14          C18   1.520       .  S
C14          C20   1.546       .  S
C14          C19   1.594       .  S
C15          C23   1.361       .  A
C15          C18   1.389       .  A
C16          C19   1.436       .  A
C16        C1463   1.414   1_455  A
C17          C31   1.383       .  A
C17          C20   1.406       .  A
C18          C21   1.371       .  A
C19        C1461   1.406   1_455  A
C20          C28   1.387       .  A
C21          N22   1.340       .  A
C21          H34   1.067       .  S
N22         C167   1.413       .  S
N22          C23   1.324       .  A
C23          H24   1.072       .  S
C25        C1455   1.406       .  A
C25          N26   1.376       .  A
C25          H35   1.082       .  S
N26          C27   1.374       .  A
N26         N108   1.447       .  S
C27        C1452   1.414       .  A
C27          H33   1.079       .  S
C28          N29   1.360       .  A
C28          H30   1.082       .  S
N29          C85   1.443       .  S
N29          C31   1.351       .  A
C31          H32   1.083       .  S
C36          C37   1.547       .  S
C36          C42   1.542       .  S
C36          C40   1.574       .  S
C36         C344   1.538       .  S
C37          H44   1.085       .  S
C37          C38   1.354       .  D
C38          C39   1.607       .  S
C38         C142   1.596       .  S
C39          C43   1.563       .  S
C39          C41   1.599       .  S
C39          H45   1.105       .  S
C40          H46   1.083       .  S
C40          C41   1.386       .  D
C42          H47   1.088       .  S
C42          C43   1.330       .  D
C43         N228   1.458       .  S
C48          C50   1.490       .  S
C48          C52   1.566       .  S
C48          C51   1.656       .  S
C49         C132   1.548       .  S
C49          C53   1.515       .  S
C49          C55   1.554       .  S
C49          C54   1.547       .  S
C50          C58   1.361       .  A
C50          C53   1.360       .  A
C51          C62   1.442   1_545  A
C51          C54   1.426       .  A
C52          C66   1.401       .  A
C52          C55   1.392       .  A
C53          C56   1.352       .  A
C54         C778   1.390   1_545  A
C55          C63   1.394       .  A
C56          N57   1.343       .  A
C56          H69   1.077       .  S
N57          C88   1.410       .  S
N57          C58   1.344       .  A
C58          H59   1.056       .  S
C60         C772   1.390       .  A
C60          N61   1.366       .  A
C60          H70   1.082       .  S
N61         C780   1.396       .  A
N61         N155   1.454       .  S
C62         N779   1.396       .  A
C62         H786   1.081       .  S
C63          N64   1.360       .  A
C63          H65   1.080       .  S
N64          C76   1.486       .  S
N64          C66   1.363       .  A
C66          H67   1.066       .  S
H68         C780   1.081       .  S
C71          C72   1.531       .  S
C71          C77   1.541       .  S
C71          C75   1.559       .  S
C71         C331   1.513       .  S
C72          H79   1.086       .  S
C72          C73   1.347       .  D
C73          C74   1.621       .  S
C73          C96   1.581       .  S
C74          C78   1.602       .  S
C74          C76   1.574       .  S
C74          H80   1.110       .  S
C75          H81   1.084       .  S
C75          C76   1.369       .  D
C77          H82   1.083       .  S
C77          C78   1.343       .  D
C78         C189   1.567       .  S
C83          C84   1.564       .  S
C83          C89   1.562       .  S
C83          C87   1.532       .  S
C83         C321   1.536       .  S
C84          H91   1.085       .  S
C84          C85   1.372       .  D
C85          C86   1.518       .  S
C86          C90   1.551       .  S
C86          C88   1.504       .  S
C86          H92   1.108       .  S
C87          H93   1.088       .  S
C87          C88   1.320       .  D
C89          H94   1.078       .  S
C89          C90   1.374       .  D
C90         C213   1.516       .  S
C95         C179   1.566       .  S
C95          C97   1.524       .  S
C95          C99   1.502       .  S
C95          C98   1.587       .  S
C96         C100   1.520       .  S
C96         C102   1.503       .  S
C96         C101   1.615       .  S
C97         C105   1.379       .  A
C97         C100   1.399       .  A
C98         C109   1.400       .  A
C98         C101   1.433       .  A
C99         C113   1.364       .  A
C99         C102   1.390       .  A
C100        C103   1.381       .  A
C101        C107   1.417       .  A
C102        C110   1.373       .  A
C103        N104   1.346       .  A
C103        H116   1.080       .  S
N104        C123   1.433       .  S
N104        C105   1.349       .  A
C105        H106   1.080       .  S
C107        N108   1.382       .  A
C107        H117   1.081       .  S
N108        C109   1.370       .  A
C109        H115   1.081       .  S
C110        N111   1.327       .  A
C110        H112   1.078       .  S
N111        C135   1.407       .  S
N111        C113   1.334       .  A
C113        H114   1.068       .  S
C118        C119   1.520       .  S
C118        C124   1.553       .  S
C118        C122   1.556       .  S
C118        C311   1.519       .  S
C119        H126   1.071       .  S
C119        C120   1.337       .  D
C120        C121   1.554       .  S
C120        C143   1.514       .  S
C121        C125   1.532       .  S
C121        C123   1.529       .  S
C121        H127   1.111       .  S
C122        H128   1.084       .  S
C122        C123   1.369       .  D
C124        H129   1.085       .  S
C124        C125   1.362       .  D
C125        N198   1.443       .  S
C130        C131   1.574       .  S
C130        C136   1.564       .  S
C130        C134   1.533       .  S
C130        C304   1.530       .  S
C131        H138   1.078       .  S
C131        C132   1.375       .  D
C132        C133   1.568       .  S
C133        C137   1.534       .  S
C133        C135   1.500       .  S
C133        H139   1.111       .  S
C134        H140   1.088       .  S
C134        C135   1.333       .  D
C136        H141   1.086       .  S
C136        C137   1.358       .  D
C137        N221   1.458       .  S
C142        C144   1.530       .  S
C142        C146   1.561       .  S
C142        C145   1.659       .  S
C143        C147   1.521       .  S
C143        C149   1.506       .  S
C143        C148   1.544       .  S
C144        C152   1.387       .  A
C144        C147   1.392       .  A
C145        C156   1.450       .  A
C145        C148   1.423       .  A
C146        C160   1.397       .  A
C146        C149   1.365       .  A
C147        C150   1.371       .  A
C148        C154   1.389       .  A
C149        C157   1.370       .  A
C150        N151   1.340       .  A
C150        H163   1.077       .  S
N151        C170   1.435       .  S
N151        C152   1.356       .  A
C152        H153   1.079       .  S
C154        N155   1.350       .  A
C154        H164   1.073       .  S
N155        C156   1.399       .  A
C156        H162   1.081       .  S
C157        N158   1.349       .  A
C157        H159   1.074       .  S
N158        C182   1.461       .  S
N158        C160   1.358       .  A
C160        H161   1.056       .  S
C165        C166   1.543       .  S
C165        C171   1.559       .  S
C165        C169   1.566       .  S
C165        C294   1.526       .  S
C166        H173   1.080       .  S
C166        C167   1.348       .  D
C167        C168   1.509       .  S
C168        C172   1.562       .  S
C168        C170   1.514       .  S
C168        H174   1.111       .  S
C169        H175   1.080       .  S
C169        C170   1.347       .  D
C171        H176   1.084   1_554  S
C171        C172   1.363       .  D
C172        C190   1.532       .  S
C177        C178   1.545       .  S
C177        C183   1.521       .  S
C177        C181   1.541       .  S
C177        C281   1.492       .  S
C178        H185   1.083       .  S
C178        C179   1.364       .  D
C179        C180   1.603       .  S
C180        C184   1.611       .  S
C180        C182   1.557       .  S
C180        H186   1.110       .  S
C181        H187   1.087       .  S
C181        C182   1.352       .  D
C183        H188   1.087       .  S
C183        C184   1.325       .  D
C184        C212   1.560       .  S
C189        C191   1.530       .  S
C189        C193   1.539       .  S
C189        C192   1.625       .  S
C190        C194   1.517       .  S
C190        C196   1.529       .  S
C190        C195   1.570       .  S
C191        C199   1.376       .  A
C191        C194   1.368       .  A
C192        C195   1.431       .  A
C192        C562   1.425   1_554  A
C193        C207   1.386       .  A
C193        C196   1.368       .  A
C194        C197   1.374       .  A
C195        C560   1.398   1_554  A
C196        C204   1.380       .  A
C197        N198   1.348       .  A
C197        H210   1.077       .  S
N198        C199   1.362       .  A
C199        H200   1.064       .  S
C201        C554   1.398       .  A
C201        N202   1.369       .  A
C201        H211   1.082       .  S
N202        C203   1.384       .  A
N202        N225   1.447       .  S
C203        C551   1.425       .  A
C203        H209   1.081       .  S
C204        N205   1.357       .  A
C204        H206   1.078       .  S
N205        C207   1.368       .  A
C207        H208   1.075       .  S
C212        C214   1.527       .  S
C212        C216   1.529       .  S
C212        C215   1.632       .  S
C213        C217   1.532       .  S
C213        C219   1.529       .  S
C213        C218   1.553       .  S
C214        C222   1.381       .  A
C214        C217   1.376       .  A
C215        C226   1.431       .  A
C215        C218   1.424       .  A
C216        C230   1.382       .  A
C216        C219   1.362       .  A
C217        C220   1.385       .  A
C218        C224   1.391       .  A
C219        C227   1.379       .  A
C220        N221   1.356       .  A
C220        H233   1.078       .  S
N221        C222   1.356       .  A
C222        H223   1.073       .  S
C224        N225   1.362       .  A
C224        H234   1.082       .  S
N225        C226   1.389       .  A
C226        H232   1.081       .  S
C227        N228   1.351       .  A
C227        H229   1.067       .  S
N228        C230   1.363       .  A
C230        H231   1.077       .  S
N235        N236   1.321       .  A
N235       N2395   1.317   1_545  A
N235       Mn264   2.220       .  S
N236       C2038   1.353       .  A
N237        N238   1.321       .  A
N237       N2393   1.303       .  A
N237       Mn253   2.147       .  S
N238        C962   1.354       .  A
N239        N240   1.299       .  A
N239       N2391   1.303       .  A
N239       Mn264   2.140   1_565  S
N240       C1680   1.350       .  A
N241        N242   1.307       .  A
N241       N2389   1.317       .  A
N241       Mn253   2.117       .  S
N242       C1320   1.338       .  A
C243       N2031   1.353   1_454  A
C243       N1319   1.338       .  A
C243        C351   1.458       .  S
C244        N956   1.354       .  A
C244       N1676   1.350       .  A
C244        C324   1.463       .  S
N245        N246   1.330       .  A
N245       N1687   1.316       .  A
N245       Mn275   2.227       .  S
N246       C1690   1.359       .  A
N247        N248   1.316       .  A
N247       N1685   1.307   1_455  A
N247       Mn253   2.165       .  S
N248        C614   1.347       .  A
N249        N250   1.310       .  A
N249       N1683   1.307       .  A
N249       Mn275   2.153       .  S
N250       C2050   1.346       .  A
N251        N252   1.308       .  A
N251       N1681   1.316   1_455  A
N251       Mn253   2.152       .  S
N252        C254   1.338       .  A
Mn253     Cl1713   2.547   1_455  S
C254       N1682   1.359   1_455  A
C254        C341   1.489       .  S
C255        N607   1.347       .  A
C255       N2045   1.345   1_455  A
C255        C291   1.482       .  S
N256        N257   1.318       .  A
N256        N980   1.309       .  A
N256       Mn264   2.194   1_565  S
N257        C265   1.357       .  A
N258        N259   1.315       .  A
N258        N978   1.307       .  A
N258       Mn276   2.169       .  S
N259       C1343   1.353       .  A
N260        N261   1.311       .  A
N260        N976   1.307       .  A
N260       Mn264   2.141       .  S
N261        C625   1.343       .  A
N262        N974   1.309       .  A
N262        N981   1.312       .  A
N262       Mn276   2.166       .  S
N263        C265   1.351       .  A
N263        N980   1.312       .  A
Mn264      Cl995   2.473   1_545  S
C265        C301   1.467       .  S
C266       N1336   1.353       .  A
C266        N620   1.344       .  A
C266        C334   1.445       .  S
N267        N268   1.311       .  A
N267        N273   1.315       .  A
N267       Mn275   2.176       .  S
N268        C637   1.351       .  A
N269        N270   1.308       .  A
N269        N271   1.305       .  A
N269       Mn276   2.137       .  S
N270        C279   1.347       .  A
N271        N272   1.310       .  A
N271       Mn275   2.110       .  S
N272        C279   1.341       .  A
N273        N274   1.319       .  A
N273       Mn276   2.177       .  S
N274        C637   1.350       .  A
Mn275      Cl277   2.478       .  S
Mn276      Cl277   2.524       .  S
Cl277     Mn1689   2.547       .  S
Cl277      Mn982   2.473       .  S
C278        N627   1.350       .  A
C278        N633   1.351   1_554  A
C278        C314   1.453       .  S
C279        C284   1.431       .  S
C280        C281   1.430       .  A
C280        C285   1.382       .  A
C280       Br287   1.955       .  S
C281        C282   1.417       .  A
C282        C283   1.395       .  A
C282       Br289   1.938       .  S
C283        C284   1.406       .  A
C283       Br288   1.936       .  S
C284        C285   1.399       .  A
C285       Br286   1.947       .  S
C290        C291   1.418       .  A
C290        C295   1.400       .  A
C290       Br297   1.934   1_455  S
C291        C292   1.439       .  A
C292        C293   1.406       .  A
C292       Br658   1.941   1_554  S
C293        C294   1.396       .  A
C293       Br298   1.920   1_554  S
C294        C295   1.404       .  A
C295       Br296   1.924   1_455  S
Br299       C651   1.941       .  S
C300        C301   1.407   1_545  A
C300        C305   1.399       .  A
C300       Br307   1.943       .  S
C301        C302   1.406       .  A
C302        C303   1.405       .  A
C302      Br1027   1.930       .  S
C303        C304   1.417   1_565  A
C303       Br308   1.926       .  S
C304        C305   1.438       .  A
C305       Br306   1.956       .  S
Br309      C1020   1.930       .  S
C310        C311   1.427       .  A
C310        C315   1.401       .  A
C310       Br317   1.932       .  S
C311        C312   1.436       .  A
C312        C313   1.400       .  A
C312       Br319   1.940       .  S
C313        C314   1.390       .  A
C313       Br677   1.926       .  S
C314        C315   1.395       .  A
C315       Br316   1.921       .  S
Br318       C672   1.926       .  S
C320        C321   1.418       .  A
C320        C325   1.416       .  A
C320       Br327   1.927       .  S
C321        C322   1.430       .  A
C322        C323   1.399       .  A
C322       Br329   1.935       .  S
C323        C324   1.392   1_545  A
C323       Br328   1.928   1_545  S
C324        C325   1.412   1_565  A
C325       Br326   1.924       .  S
C330        C331   1.409       .  A
C330        C335   1.397       .  A
C330       Br337   1.934       .  S
C331        C332   1.419       .  A
C332        C333   1.395   1_554  A
C332       Br339   1.935       .  S
C333        C334   1.398       .  A
C333       Br697   1.930       .  S
C334        C335   1.408   1_556  A
C335      Br1054   1.925       .  S
Br336      C1053   1.925       .  S
Br338       C692   1.930       .  S
C340        C341   1.414       .  A
C340        C345   1.393       .  A
C340       Br347   1.937       .  S
C341        C342   1.421       .  A
C342        C343   1.420       .  A
C342      Br1785   1.921   1_455  S
C343        C344   1.407       .  A
C343       Br348   1.924   1_455  S
C344        C345   1.422       .  A
C345       Br346   1.945       .  S
Br349      C1778   1.921       .  S
C350        C351   1.412       .  A
C350        C355   1.397       .  A
C350      Br1075   1.928   1_445  S
C351        C352   1.397       .  A
C352        C353   1.395       .  A
C352       Br718   1.931   1_455  S
C353        C354   1.430       .  A
C353       Br358   1.941       .  S
C354        C355   1.405       .  A
C355       Br356   1.930       .  S
Br357      C1068   1.928   1_655  S
Br359       C711   1.931   1_655  S
C360        C361   1.561       .  S
C360        C366   1.547       .  S
C360        C364   1.521       .  S
C360        C713   1.508       .  S
C361        H368   1.082       .  S
C361        C362   1.373       .  D
C362        C363   1.601       .  S
C362        C407   1.585       .  S
C363        C367   1.578       .  S
C363        C365   1.629       .  S
C363        H369   1.108       .  S
C364        H370   1.082       .  S
C364        C365   1.334       .  D
C365        C372   1.598       .  S
C366        H371   1.087       .  S
C366        C367   1.346       .  D
C367        N564   1.474       .  S
C372        C374   1.491       .  S
C372        C376   1.526       .  S
C372        C375   1.610       .  S
C373        C400   1.603       .  S
C373        C377   1.520       .  S
C373        C379   1.546       .  S
C373        C378   1.594       .  S
C374        C382   1.360       .  A
C374        C377   1.389       .  A
C375       C1822   1.414   1_455  A
C375        C378   1.436       .  A
C376        C390   1.383       .  A
C376        C379   1.406       .  A
C377        C380   1.371       .  A
C378       C1820   1.406   1_455  A
C379        C387   1.387       .  A
C380        N381   1.340       .  A
C380        H393   1.067       .  S
N381        C526   1.413       .  S
N381        C382   1.324       .  A
C382        H383   1.071       .  S
C384       C1814   1.406       .  A
C384        N385   1.376       .  A
C384        H394   1.082       .  S
N385        C386   1.374       .  A
N385        N467   1.447       .  S
C386       C1811   1.414       .  A
C386        H392   1.080       .  S
C387        N388   1.360       .  A
C387        H389   1.082       .  S
N388        C444   1.443       .  S
N388        C390   1.352       .  A
C390        H391   1.083       .  S
C395        C396   1.547       .  S
C395        C401   1.542       .  S
C395        C399   1.574       .  S
C395        C703   1.537       .  S
C396        H403   1.085       .  S
C396        C397   1.353       .  D
C397        C398   1.607       .  S
C397        C501   1.595       .  S
C398        C402   1.563       .  S
C398        C400   1.599       .  S
C398        H404   1.105       .  S
C399        H405   1.083       .  S
C399        C400   1.385       .  D
C401        H406   1.088       .  S
C401        C402   1.330       .  D
C402        N587   1.458       .  S
C407        C409   1.490       .  S
C407        C411   1.566       .  S
C407        C410   1.656       .  S
C408        C491   1.549       .  S
C408        C412   1.514       .  S
C408        C414   1.553       .  S
C408        C413   1.547       .  S
C409        C417   1.362       .  A
C409        C412   1.359       .  A
C410        C421   1.442   1_545  A
C410        C413   1.426       .  A
C411        C425   1.401       .  A
C411        C414   1.392       .  A
C412        C415   1.352       .  A
C413       C1137   1.390   1_545  A
C414        C422   1.393       .  A
C415        N416   1.343       .  A
C415        H428   1.077       .  S
N416        C447   1.410       .  S
N416        C417   1.344       .  A
C417        H418   1.056       .  S
C419       C1131   1.390       .  A
C419        N420   1.366       .  A
C419        H429   1.082       .  S
N420       C1139   1.396       .  A
N420        N514   1.454       .  S
C421       N1138   1.396       .  A
C421       H1145   1.081       .  S
C422        N423   1.360       .  A
C422        H424   1.080       .  S
N423        C435   1.485       .  S
N423        C425   1.363       .  A
C425        H426   1.066       .  S
H427       C1139   1.081       .  S
C430        C431   1.531       .  S
C430        C436   1.541       .  S
C430        C434   1.559       .  S
C430        C690   1.513       .  S
C431        H438   1.085       .  S
C431        C432   1.347       .  D
C432        C433   1.621       .  S
C432        C455   1.582       .  S
C433        C437   1.602       .  S
C433        C435   1.574       .  S
C433        H439   1.110       .  S
C434        H440   1.084       .  S
C434        C435   1.369       .  D
C436        H441   1.083       .  S
C436        C437   1.342       .  D
C437        C548   1.567       .  S
C442        C443   1.564       .  S
C442        C448   1.562       .  S
C442        C446   1.531       .  S
C442        C680   1.536       .  S
C443        H450   1.085       .  S
C443        C444   1.372       .  D
C444        C445   1.517       .  S
C445        C449   1.552       .  S
C445        C447   1.504       .  S
C445        H451   1.108       .  S
C446        H452   1.088       .  S
C446        C447   1.320       .  D
C448        H453   1.078       .  S
C448        C449   1.374       .  D
C449        C572   1.517       .  S
C454        C538   1.567       .  S
C454        C456   1.525       .  S
C454        C458   1.502       .  S
C454        C457   1.587       .  S
C455        C459   1.520       .  S
C455        C461   1.503       .  S
C455        C460   1.615       .  S
C456        C464   1.379       .  A
C456        C459   1.400       .  A
C457        C468   1.400       .  A
C457        C460   1.433       .  A
C458        C472   1.364       .  A
C458        C461   1.390       .  A
C459        C462   1.381       .  A
C460        C466   1.417       .  A
C461        C469   1.373       .  A
C462        N463   1.346       .  A
C462        H475   1.080       .  S
N463        C482   1.432       .  S
N463        C464   1.349       .  A
C464        H465   1.080       .  S
C466        N467   1.382       .  A
C466        H476   1.081       .  S
N467        C468   1.370       .  A
C468        H474   1.081       .  S
C469        N470   1.327       .  A
C469        H471   1.078       .  S
N470        C494   1.406       .  S
N470        C472   1.333       .  A
C472        H473   1.068       .  S
C477        C478   1.520       .  S
C477        C483   1.554       .  S
C477        C481   1.556       .  S
C477        C670   1.519       .  S
C478        H485   1.071       .  S
C478        C479   1.336       .  D
C479        C480   1.554       .  S
C479        C502   1.514       .  S
C480        C484   1.533       .  S
C480        C482   1.529       .  S
C480        H486   1.111       .  S
C481        H487   1.084       .  S
C481        C482   1.369       .  D
C483        H488   1.086       .  S
C483        C484   1.362       .  D
C484        N557   1.443       .  S
C489        C490   1.574       .  S
C489        C495   1.564       .  S
C489        C493   1.533       .  S
C489        C663   1.531       .  S
C490        H497   1.078       .  S
C490        C491   1.375       .  D
C491        C492   1.569       .  S
C492        C496   1.534       .  S
C492        C494   1.500       .  S
C492        H498   1.111       .  S
C493        H499   1.088       .  S
C493        C494   1.333       .  D
C495        H500   1.086       .  S
C495        C496   1.358       .  D
C496        N580   1.458       .  S
C501        C503   1.530       .  S
C501        C505   1.561       .  S
C501        C504   1.659       .  S
C502        C506   1.521       .  S
C502        C508   1.506       .  S
C502        C507   1.544       .  S
C503        C511   1.386       .  A
C503        C506   1.391       .  A
C504        C515   1.450       .  A
C504        C507   1.423       .  A
C505        C519   1.397       .  A
C505        C508   1.365       .  A
C506        C509   1.370       .  A
C507        C513   1.389       .  A
C508        C516   1.369       .  A
C509        N510   1.339       .  A
C509        H522   1.077       .  S
N510        C529   1.434       .  S
N510        C511   1.355       .  A
C511        H512   1.079       .  S
C513        N514   1.350       .  A
C513        H523   1.073       .  S
N514        C515   1.398       .  A
C515        H521   1.081       .  S
C516        N517   1.349       .  A
C516        H518   1.074       .  S
N517        C541   1.461       .  S
N517        C519   1.358       .  A
C519        H520   1.056       .  S
C524        C525   1.543       .  S
C524        C530   1.559       .  S
C524        C528   1.566       .  S
C524        C653   1.526       .  S
C525        H532   1.079       .  S
C525        C526   1.347       .  D
C526        C527   1.509       .  S
C527        C531   1.562       .  S
C527        C529   1.514       .  S
C527        H533   1.111       .  S
C528        H534   1.080       .  S
C528        C529   1.346       .  D
C530        H535   1.084       .  S
C530        C531   1.363       .  D
C531        C549   1.532       .  S
C536        C537   1.546       .  S
C536        C542   1.522       .  S
C536        C540   1.540       .  S
C536        C640   1.493       .  S
C537        H544   1.083       .  S
C537        C538   1.365       .  D
C538        C539   1.603       .  S
C539        C543   1.611       .  S
C539        C541   1.557       .  S
C539        H545   1.110       .  S
C540        H546   1.087       .  S
C540        C541   1.351       .  D
C542        H547   1.087       .  S
C542        C543   1.325       .  D
C543        C571   1.561       .  S
C548        C550   1.530       .  S
C548        C552   1.539       .  S
C548        C551   1.626       .  S
C549        C553   1.517       .  S
C549        C555   1.530       .  S
C549        C554   1.569       .  S
C550        C558   1.376       .  A
C550        C553   1.368       .  A
C551        C554   1.431       .  A
C552        C566   1.386       .  A
C552        C555   1.368       .  A
C553        C556   1.374       .  A
C555        C563   1.380       .  A
C556        N557   1.348       .  A
C556        H569   1.077       .  S
N557        C558   1.362       .  A
C558        H559   1.064       .  S
C560        N561   1.369       .  A
C560        H570   1.082       .  S
N561        C562   1.384       .  A
N561        N584   1.447       .  S
C562        H568   1.081       .  S
C563        N564   1.357       .  A
C563        H565   1.078       .  S
N564        C566   1.368       .  A
C566        H567   1.075       .  S
C571        C573   1.528       .  S
C571        C575   1.529       .  S
C571        C574   1.632       .  S
C572        C576   1.532       .  S
C572        C578   1.529       .  S
C572        C577   1.553       .  S
C573        C581   1.381       .  A
C573        C576   1.376       .  A
C574        C585   1.431       .  A
C574        C577   1.425       .  A
C575        C589   1.381       .  A
C575        C578   1.362       .  A
C576        C579   1.385       .  A
C577        C583   1.391       .  A
C578        C586   1.379       .  A
C579        N580   1.356       .  A
C579        H592   1.078       .  S
N580        C581   1.356       .  A
C581        H582   1.073       .  S
C583        N584   1.362       .  A
C583        H593   1.082       .  S
N584        C585   1.389       .  A
C585        H591   1.081       .  S
C586        N587   1.351       .  A
C586        H588   1.067       .  S
N587        C589   1.363       .  A
C589        H590   1.077       .  S
N594        N595   1.321       .  A
N594       N2754   1.317   1_545  A
N594       Mn623   2.219       .  S
N595       C1679   1.353   1_556  A
N596       N2752   1.303       .  A
N596        N597   1.321       .  A
N596       Mn612   2.146       .  S
N597       C1321   1.354       .  A
N598       N2750   1.303       .  A
N598        N599   1.299       .  A
N598       Mn623   2.139   1_565  S
N599       C2039   1.350       .  A
N600       N2748   1.317       .  A
N600        N601   1.307   1_556  A
N600       Mn612   2.118       .  S
N601        C961   1.338       .  A
C602       N1672   1.353   1_455  A
C602        N960   1.338       .  A
C602        C710   1.458       .  S
C603       N1315   1.354       .  A
C603       N2035   1.350       .  A
C603        C683   1.463       .  S
N604       N2046   1.315       .  A
N604        N605   1.330       .  A
N604       Mn634   2.225       .  S
N605       C2049   1.359       .  A
N606        N607   1.316       .  A
N606       N2044   1.307   1_455  A
N606       Mn612   2.166   1_554  S
N608       N2042   1.307       .  A
N608        N609   1.309       .  A
N608       Mn634   2.152   1_554  S
N609       C1691   1.345       .  A
N610       N2040   1.315   1_455  A
N610        N611   1.308       .  A
N610       Mn612   2.151       .  S
N611        C613   1.338       .  A
Mn612     Cl2072   2.548   1_455  S
C613       N2041   1.359   1_455  A
C613        C700   1.488       .  S
C614       N1686   1.346   1_455  A
C614        C650   1.481       .  S
N615        N616   1.318       .  A
N615       N1339   1.309       .  A
N615       Mn623   2.195   1_565  S
N616        C624   1.357       .  A
N617       N1337   1.307       .  A
N617        N618   1.316       .  A
N617       Mn635   2.171       .  S
N618        C984   1.353       .  A
N619       N1335   1.307       .  A
N619        N620   1.312       .  A
N619       Mn623   2.141       .  S
N621       N1333   1.309       .  A
N621       N1340   1.312       .  A
N621       Mn635   2.167       .  S
N622        C624   1.351       .  A
N622       N1339   1.312       .  A
Mn623     Cl1354   2.473   1_545  S
C624        C660   1.467       .  S
C625        N977   1.353       .  A
C625        C693   1.445       .  S
N626        N627   1.310   1_556  A
N626        N632   1.315       .  A
N626       Mn634   2.173       .  S
N628        N629   1.308       .  A
N628        N630   1.304       .  A
N628       Mn635   2.140       .  S
N629        C638   1.348       .  A
N630        N631   1.310       .  A
N630       Mn634   2.109       .  S
N631        C638   1.341       .  A
N632        N633   1.319       .  A
N632       Mn635   2.179       .  S
Mn634      Cl636   2.477       .  S
Mn635      Cl636   2.524       .  S
Cl636     Mn2048   2.548       .  S
Cl636     Mn1341   2.473       .  S
C637        C673   1.453       .  S
C638        C643   1.433       .  S
C639        C640   1.430       .  A
C639        C644   1.382       .  A
C639       Br646   1.955       .  S
C640        C641   1.417       .  A
C641        C642   1.395       .  A
C641       Br648   1.938       .  S
C642        C643   1.406       .  A
C642       Br647   1.936       .  S
C643        C644   1.399       .  A
C644       Br645   1.947       .  S
C649        C650   1.417       .  A
C649        C654   1.400       .  A
C649       Br656   1.934   1_455  S
C650        C651   1.439       .  A
C651        C652   1.406       .  A
C652        C653   1.397       .  A
C652       Br657   1.919       .  S
C653        C654   1.404       .  A
C654       Br655   1.923   1_455  S
C659        C660   1.406   1_545  A
C659        C664   1.399       .  A
C659       Br666   1.943       .  S
C660        C661   1.406       .  A
C661        C662   1.406       .  A
C661      Br1386   1.929       .  S
C662        C663   1.418   1_565  A
C662       Br667   1.926       .  S
C663        C664   1.438       .  A
C664       Br665   1.956       .  S
Br668      C1379   1.929       .  S
C669        C670   1.428       .  A
C669        C674   1.401       .  A
C669       Br676   1.932       .  S
C670        C671   1.437       .  A
C671        C672   1.400       .  A
C671       Br678   1.940       .  S
C672        C673   1.389       .  A
C673        C674   1.394       .  A
C674       Br675   1.921       .  S
C679        C680   1.418       .  A
C679        C684   1.416       .  A
C679       Br686   1.927       .  S
C680        C681   1.430       .  A
C681        C682   1.400       .  A
C681       Br688   1.935       .  S
C682        C683   1.392   1_545  A
C682       Br687   1.928   1_545  S
C683        C684   1.412   1_565  A
C684       Br685   1.924       .  S
C689        C690   1.408       .  A
C689        C694   1.398       .  A
C689       Br696   1.934       .  S
C690        C691   1.419       .  A
C691        C692   1.395       .  A
C691       Br698   1.935       .  S
C692        C693   1.397       .  A
C693        C694   1.408       .  A
C694      Br1413   1.925       .  S
Br695      C1412   1.925       .  S
C699        C700   1.414       .  A
C699        C704   1.393       .  A
C699       Br706   1.938       .  S
C700        C701   1.421       .  A
C701        C702   1.420       .  A
C701      Br2144   1.921   1_455  S
C702        C703   1.407       .  A
C702       Br707   1.924   1_455  S
C703        C704   1.423       .  A
C704       Br705   1.946       .  S
Br708      C2137   1.921       .  S
C709        C710   1.413       .  A
C709        C714   1.397       .  A
C709      Br1434   1.928   1_445  S
C710        C711   1.397       .  A
C711        C712   1.395       .  A
C712        C713   1.430       .  A
C712       Br717   1.941       .  S
C713        C714   1.404       .  A
C714       Br715   1.930       .  S
Br716      C1427   1.928   1_655  S
C719        C720   1.561       .  S
C719        C725   1.546       .  S
C719        C723   1.522       .  S
C719       C1072   1.508       .  S
C720        H727   1.082       .  S
C720        C721   1.372       .  D
C721        C722   1.601       .  S
C721        C766   1.584       .  S
C722        C726   1.578       .  S
C722        C724   1.629       .  S
C722        H728   1.108       .  S
C723        H729   1.082       .  S
C723        C724   1.334       .  D
C724        C731   1.598       .  S
C725        H730   1.087       .  S
C725        C726   1.346       .  D
C726        N923   1.474       .  S
C731        C733   1.491       .  S
C731        C735   1.526       .  S
C731        C734   1.610       .  S
C732        C759   1.604       .  S
C732        C736   1.520       .  S
C732        C738   1.546       .  S
C732        C737   1.594       .  S
C733        C741   1.361       .  A
C733        C736   1.389       .  A
C734       C2181   1.414   1_455  A
C734        C737   1.436       .  A
C735        C749   1.383       .  A
C735        C738   1.406       .  A
C736        C739   1.371       .  A
C737       C2179   1.406   1_455  A
C738        C746   1.387       .  A
C739        N740   1.340       .  A
C739        H752   1.067       .  S
N740        C885   1.413       .  S
N740        C741   1.324       .  A
C741        H742   1.072       .  S
C743       C2173   1.406       .  A
C743        N744   1.376       .  A
C743        H753   1.082       .  S
N744        C745   1.374       .  A
N744        N826   1.447       .  S
C745       C2170   1.414       .  A
C745        H751   1.079       .  S
C746        N747   1.360       .  A
C746        H748   1.082       .  S
N747        C803   1.443       .  S
N747        C749   1.352       .  A
C749        H750   1.083       .  S
C754        C755   1.547       .  S
C754        C760   1.542       .  S
C754        C758   1.574       .  S
C754       C1062   1.538       .  S
C755        H762   1.085       .  S
C755        C756   1.354       .  D
C756        C757   1.607       .  S
C756        C860   1.596       .  S
C757        C761   1.563       .  S
C757        C759   1.599       .  S
C757        H763   1.105       .  S
C758        H764   1.083       .  S
C758        C759   1.386       .  D
C760        H765   1.088       .  S
C760        C761   1.330       .  D
C761        N946   1.458       .  S
C766        C768   1.490       .  S
C766        C770   1.566       .  S
C766        C769   1.656       .  S
C767        C850   1.548       .  S
C767        C771   1.515       .  S
C767        C773   1.554       .  S
C767        C772   1.547       .  S
C768        C776   1.361       .  A
C768        C771   1.360       .  A
C769        C780   1.442       .  A
C769        C772   1.426       .  A
C770        C784   1.401       .  A
C770        C773   1.392       .  A
C771        C774   1.352       .  A
C773        C781   1.394       .  A
C774        N775   1.343       .  A
C774        H787   1.077       .  S
N775        C806   1.410       .  S
N775        C776   1.344       .  A
C776        H777   1.056       .  S
C778        N779   1.366       .  A
C778        H788   1.082       .  S
N779        N873   1.454       .  S
C781        N782   1.360       .  A
C781        H783   1.080       .  S
N782        C794   1.486       .  S
N782        C784   1.363       .  A
C784        H785   1.066       .  S
C789        C790   1.530       .  S
C789        C795   1.541       .  S
C789        C793   1.559       .  S
C789       C1049   1.513       .  S
C790        H797   1.086       .  S
C790        C791   1.347       .  D
C791        C792   1.621       .  S
C791        C814   1.581       .  S
C792        C796   1.602       .  S
C792        C794   1.574       .  S
C792        H798   1.110       .  S
C793        H799   1.084       .  S
C793        C794   1.369       .  D
C795        H800   1.083       .  S
C795        C796   1.343       .  D
C796        C907   1.567       .  S
C801        C802   1.564       .  S
C801        C807   1.562       .  S
C801        C805   1.532       .  S
C801       C1039   1.536       .  S
C802        H809   1.085       .  S
C802        C803   1.372       .  D
C803        C804   1.518       .  S
C804        C808   1.551       .  S
C804        C806   1.504       .  S
C804        H810   1.108       .  S
C805        H811   1.087       .  S
C805        C806   1.320       .  D
C807        H812   1.078       .  S
C807        C808   1.374       .  D
C808        C931   1.516       .  S
C813        C897   1.566       .  S
C813        C815   1.524       .  S
C813        C817   1.502       .  S
C813        C816   1.587       .  S
C814        C818   1.520       .  S
C814        C820   1.503       .  S
C814        C819   1.615       .  S
C815        C823   1.379       .  A
C815        C818   1.399       .  A
C816        C827   1.400       .  A
C816        C819   1.433       .  A
C817        C831   1.364       .  A
C817        C820   1.390       .  A
C818        C821   1.381       .  A
C819        C825   1.417       .  A
C820        C828   1.373       .  A
C821        N822   1.346       .  A
C821        H834   1.080       .  S
N822        C841   1.433       .  S
N822        C823   1.349       .  A
C823        H824   1.080       .  S
C825        N826   1.382       .  A
C825        H835   1.081       .  S
N826        C827   1.370       .  A
C827        H833   1.081       .  S
C828        N829   1.327       .  A
C828        H830   1.078       .  S
N829        C853   1.407       .  S
N829        C831   1.334       .  A
C831        H832   1.068       .  S
C836        C837   1.520       .  S
C836        C842   1.553       .  S
C836        C840   1.556       .  S
C836       C1029   1.519       .  S
C837        H844   1.071       .  S
C837        C838   1.337       .  D
C838        C839   1.554       .  S
C838        C861   1.514       .  S
C839        C843   1.532       .  S
C839        C841   1.529       .  S
C839        H845   1.111       .  S
C840        H846   1.084       .  S
C840        C841   1.369       .  D
C842        H847   1.085       .  S
C842        C843   1.362       .  D
C843        N916   1.443       .  S
C848        C849   1.574       .  S
C848        C854   1.564       .  S
C848        C852   1.533       .  S
C848       C1022   1.530       .  S
C849        H856   1.078       .  S
C849        C850   1.375       .  D
C850        C851   1.568       .  S
C851        C855   1.534       .  S
C851        C853   1.500       .  S
C851        H857   1.111       .  S
C852        H858   1.088       .  S
C852        C853   1.333       .  D
C854        H859   1.086       .  S
C854        C855   1.358       .  D
C855        N939   1.458       .  S
C860        C862   1.530       .  S
C860        C864   1.561       .  S
C860        C863   1.659       .  S
C861        C865   1.521       .  S
C861        C867   1.506       .  S
C861        C866   1.544       .  S
C862        C870   1.387       .  A
C862        C865   1.392       .  A
C863        C874   1.450       .  A
C863        C866   1.423       .  A
C864        C878   1.397       .  A
C864        C867   1.365       .  A
C865        C868   1.371       .  A
C866        C872   1.389       .  A
C867        C875   1.370       .  A
C868        N869   1.340       .  A
C868        H881   1.077       .  S
N869        C888   1.435       .  S
N869        C870   1.356       .  A
C870        H871   1.079       .  S
C872        N873   1.350       .  A
C872        H882   1.073       .  S
N873        C874   1.399       .  A
C874        H880   1.081       .  S
C875        N876   1.349       .  A
C875        H877   1.074       .  S
N876        C900   1.461       .  S
N876        C878   1.358       .  A
C878        H879   1.055       .  S
C883        C884   1.543       .  S
C883        C889   1.559       .  S
C883        C887   1.566       .  S
C883       C1012   1.526       .  S
C884        H891   1.080       .  S
C884        C885   1.348       .  D
C885        C886   1.509       .  S
C886        C890   1.562       .  S
C886        C888   1.514       .  S
C886        H892   1.111       .  S
C887        H893   1.080       .  S
C887        C888   1.347       .  D
C889        H894   1.084   1_554  S
C889        C890   1.363       .  D
C890        C908   1.532       .  S
C895        C896   1.545       .  S
C895        C901   1.521       .  S
C895        C899   1.541       .  S
C895        C999   1.492       .  S
C896        H903   1.083       .  S
C896        C897   1.364       .  D
C897        C898   1.603       .  S
C898        C902   1.611       .  S
C898        C900   1.557       .  S
C898        H904   1.110       .  S
C899        H905   1.087       .  S
C899        C900   1.352       .  D
C901        H906   1.087       .  S
C901        C902   1.325       .  D
C902        C930   1.560       .  S
C907        C909   1.530       .  S
C907        C911   1.539       .  S
C907        C910   1.625       .  S
C908        C912   1.517       .  S
C908        C914   1.529       .  S
C908        C913   1.570       .  S
C909        C917   1.376       .  A
C909        C912   1.368       .  A
C910       C1280   1.425   1_554  A
C910        C913   1.431       .  A
C911        C925   1.386       .  A
C911        C914   1.368       .  A
C912        C915   1.374       .  A
C913       C1278   1.398   1_554  A
C914        C922   1.380       .  A
C915        N916   1.348       .  A
C915        H928   1.077       .  S
N916        C917   1.362       .  A
C917        H918   1.064       .  S
C919       C1272   1.398       .  A
C919        N920   1.369       .  A
C919        H929   1.082       .  S
N920        C921   1.384       .  A
N920        N943   1.447       .  S
C921       C1269   1.425       .  A
C921        H927   1.081       .  S
C922        N923   1.357       .  A
C922        H924   1.078       .  S
N923        C925   1.368       .  A
C925        H926   1.075       .  S
C930        C932   1.527       .  S
C930        C934   1.529       .  S
C930        C933   1.632       .  S
C931        C935   1.532       .  S
C931        C937   1.529       .  S
C931        C936   1.553       .  S
C932        C940   1.381       .  A
C932        C935   1.376       .  A
C933        C944   1.431       .  A
C933        C936   1.424       .  A
C934        C948   1.382       .  A
C934        C937   1.362       .  A
C935        C938   1.385       .  A
C936        C942   1.391       .  A
C937        C945   1.379       .  A
C938        N939   1.356       .  A
C938        H951   1.078       .  S
N939        C940   1.356       .  A
C940        H941   1.073       .  S
C942        N943   1.362       .  A
C942        H952   1.082       .  S
N943        C944   1.389       .  A
C944        H950   1.081       .  S
C945        N946   1.351       .  A
C945        H947   1.067       .  S
N946        C948   1.363       .  A
C948        H949   1.077       .  S
N953        N954   1.321       .  A
N953       N1677   1.317       .  A
N953       Mn982   2.220       .  S
N954       C2756   1.353       .  A
N955       N1675   1.303       .  A
N955        N956   1.321       .  A
N955       Mn971   2.147       .  S
N957       N1673   1.303       .  A
N957        N958   1.299       .  A
N957       Mn982   2.140       .  S
N958       C2398   1.350       .  A
N959       N1671   1.317   1_565  A
N959        N960   1.307   1_565  A
N959       Mn971   2.117       .  S
C961       N2749   1.353   1_454  A
C961       C1069   1.458       .  S
C962       N2394   1.350       .  A
C962       C1042   1.463       .  S
N963       N2405   1.316       .  A
N963        N964   1.330       .  A
N963       Mn993   2.227       .  S
N964       C2408   1.359       .  A
N965        N966   1.316       .  A
N965       N2403   1.307   1_455  A
N965       Mn971   2.165       .  S
N966       C1332   1.347       .  A
N967       N2401   1.307       .  A
N967        N968   1.310       .  A
N967       Mn993   2.153       .  S
N968       C2768   1.346       .  A
N969       N2399   1.316   1_455  A
N969        N970   1.308       .  A
N969       Mn971   2.152       .  S
N970        C972   1.338       .  A
Mn971     Cl2431   2.547   1_455  S
C972       N2400   1.359   1_455  A
C972       C1059   1.489       .  S
C973       N1325   1.347       .  A
C973       N2763   1.345   1_455  A
C973       C1009   1.482       .  S
N974        N975   1.318       .  A
N974       Mn982   2.194       .  S
N975        C983   1.357       .  A
N976        N977   1.315       .  A
N976       Mn994   2.169   1_545  S
N978        N979   1.311       .  A
N978       Mn982   2.141       .  S
N979       C1343   1.343       .  A
N980       Mn994   2.166       .  S
N981        C983   1.351       .  A
C983       C1019   1.467       .  S
C984       N1338   1.344       .  A
C984       C1052   1.445       .  S
N985        N986   1.311       .  A
N985        N991   1.315       .  A
N985       Mn993   2.176       .  S
N986       C1355   1.351       .  A
N987        N988   1.308       .  A
N987        N989   1.305       .  A
N987       Mn994   2.137       .  S
N988        C997   1.347       .  A
N989        N990   1.310       .  A
N989       Mn993   2.110       .  S
N990        C997   1.341       .  A
N991        N992   1.319       .  A
N991       Mn994   2.177       .  S
N992       C1355   1.350       .  A
Mn993      Cl995   2.478       .  S
Mn994      Cl995   2.524       .  S
Cl995     Mn2407   2.547       .  S
C996       N1345   1.350       .  A
C996       N1351   1.351   1_554  A
C996       C1032   1.453       .  S
C997       C1002   1.431       .  S
C998        C999   1.430       .  A
C998       C1003   1.382       .  A
C998      Br1005   1.955       .  S
C999       C1000   1.417       .  A
C1000      C1001   1.395       .  A
C1000     Br1007   1.938       .  S
C1001      C1002   1.406       .  A
C1001     Br1006   1.936       .  S
C1002      C1003   1.399       .  A
C1003     Br1004   1.947       .  S
C1008      C1009   1.418       .  A
C1008      C1013   1.400       .  A
C1008     Br1015   1.934   1_455  S
C1009      C1010   1.439       .  A
C1010      C1011   1.406       .  A
C1010     Br1376   1.941   1_554  S
C1011      C1012   1.396       .  A
C1011     Br1016   1.920   1_554  S
C1012      C1013   1.404       .  A
C1013     Br1014   1.924   1_455  S
Br1017     C1369   1.941       .  S
C1018      C1019   1.407       .  A
C1018      C1023   1.399       .  A
C1018     Br1025   1.943       .  S
C1019      C1020   1.406       .  A
C1020      C1021   1.405       .  A
C1021      C1022   1.417       .  A
C1021     Br1026   1.926       .  S
C1022      C1023   1.438       .  A
C1023     Br1024   1.956       .  S
C1028      C1029   1.427       .  A
C1028      C1033   1.401       .  A
C1028     Br1035   1.932       .  S
C1029      C1030   1.436       .  A
C1030      C1031   1.400       .  A
C1030     Br1037   1.940       .  S
C1031      C1032   1.390       .  A
C1031     Br1395   1.926       .  S
C1032      C1033   1.395       .  A
C1033     Br1034   1.921       .  S
Br1036     C1390   1.926       .  S
C1038      C1039   1.418       .  A
C1038      C1043   1.416       .  A
C1038     Br1045   1.927       .  S
C1039      C1040   1.430       .  A
C1040      C1041   1.399       .  A
C1040     Br1047   1.935       .  S
C1041      C1042   1.392       .  A
C1041     Br1046   1.928       .  S
C1042      C1043   1.412       .  A
C1043     Br1044   1.924       .  S
C1048      C1049   1.409       .  A
C1048      C1053   1.397       .  A
C1048     Br1055   1.934       .  S
C1049      C1050   1.419       .  A
C1050      C1051   1.395   1_554  A
C1050     Br1057   1.935       .  S
C1051      C1052   1.398       .  A
C1051     Br1415   1.930       .  S
C1052      C1053   1.408   1_556  A
Br1056     C1410   1.930       .  S
C1058      C1059   1.414       .  A
C1058      C1063   1.393       .  A
C1058     Br1065   1.937       .  S
C1059      C1060   1.421       .  A
C1060      C1061   1.420       .  A
C1060     Br2503   1.921   1_455  S
C1061      C1062   1.407       .  A
C1061     Br1066   1.924   1_455  S
C1062      C1063   1.422       .  A
C1063     Br1064   1.945       .  S
Br1067     C2496   1.921       .  S
C1068      C1069   1.412       .  A
C1068      C1073   1.397       .  A
C1069      C1070   1.397       .  A
C1070      C1071   1.395       .  A
C1070     Br1436   1.931   1_455  S
C1071      C1072   1.430       .  A
C1071     Br1076   1.941       .  S
C1072      C1073   1.405       .  A
C1073     Br1074   1.930       .  S
Br1077     C1429   1.931   1_655  S
C1078      C1079   1.561       .  S
C1078      C1084   1.547       .  S
C1078      C1082   1.521       .  S
C1078      C1431   1.508       .  S
C1079      H1086   1.082       .  S
C1079      C1080   1.373       .  D
C1080      C1081   1.601       .  S
C1080      C1125   1.585       .  S
C1081      C1085   1.578       .  S
C1081      C1083   1.629       .  S
C1081      H1087   1.108       .  S
C1082      H1088   1.081       .  S
C1082      C1083   1.334       .  D
C1083      C1090   1.598       .  S
C1084      H1089   1.087       .  S
C1084      C1085   1.346       .  D
C1085      N1282   1.474       .  S
C1090      C1092   1.491       .  S
C1090      C1094   1.526       .  S
C1090      C1093   1.610       .  S
C1091      C1118   1.603       .  S
C1091      C1095   1.520       .  S
C1091      C1097   1.546       .  S
C1091      C1096   1.594       .  S
C1092      C1100   1.360       .  A
C1092      C1095   1.389       .  A
C1093      C2540   1.414   1_455  A
C1093      C1096   1.436       .  A
C1094      C1108   1.383       .  A
C1094      C1097   1.406       .  A
C1095      C1098   1.371       .  A
C1096      C2538   1.406   1_455  A
C1097      C1105   1.387       .  A
C1098      N1099   1.340       .  A
C1098      H1111   1.067       .  S
N1099      C1244   1.413       .  S
N1099      C1100   1.324       .  A
C1100      H1101   1.072       .  S
C1102      C2532   1.406       .  A
C1102      N1103   1.376       .  A
C1102      H1112   1.082       .  S
N1103      C1104   1.374       .  A
N1103      N1185   1.447       .  S
C1104      C2529   1.414       .  A
C1104      H1110   1.079       .  S
C1105      N1106   1.360       .  A
C1105      H1107   1.082       .  S
N1106      C1162   1.443       .  S
N1106      C1108   1.352       .  A
C1108      H1109   1.083       .  S
C1113      C1114   1.547       .  S
C1113      C1119   1.542       .  S
C1113      C1117   1.574       .  S
C1113      C1421   1.537       .  S
C1114      H1121   1.085       .  S
C1114      C1115   1.353       .  D
C1115      C1116   1.607       .  S
C1115      C1219   1.595       .  S
C1116      C1120   1.563       .  S
C1116      C1118   1.599       .  S
C1116      H1122   1.105       .  S
C1117      H1123   1.083       .  S
C1117      C1118   1.385       .  D
C1119      H1124   1.088       .  S
C1119      C1120   1.330       .  D
C1120      N1305   1.458       .  S
C1125      C1127   1.490       .  S
C1125      C1129   1.566       .  S
C1125      C1128   1.656       .  S
C1126      C1209   1.549       .  S
C1126      C1130   1.514       .  S
C1126      C1132   1.553       .  S
C1126      C1131   1.547       .  S
C1127      C1135   1.362       .  A
C1127      C1130   1.359       .  A
C1128      C1139   1.442       .  A
C1128      C1131   1.426       .  A
C1129      C1143   1.401       .  A
C1129      C1132   1.392       .  A
C1130      C1133   1.352       .  A
C1132      C1140   1.393       .  A
C1133      N1134   1.343       .  A
C1133      H1146   1.077       .  S
N1134      C1165   1.410       .  S
N1134      C1135   1.344       .  A
C1135      H1136   1.056       .  S
C1137      N1138   1.366       .  A
C1137      H1147   1.082       .  S
N1138      N1232   1.454       .  S
C1140      N1141   1.360       .  A
C1140      H1142   1.080       .  S
N1141      C1153   1.485       .  S
N1141      C1143   1.363       .  A
C1143      H1144   1.066       .  S
C1148      C1149   1.531       .  S
C1148      C1154   1.541       .  S
C1148      C1152   1.559       .  S
C1148      C1408   1.513       .  S
C1149      H1156   1.085       .  S
C1149      C1150   1.347       .  D
C1150      C1151   1.621       .  S
C1150      C1173   1.582       .  S
C1151      C1155   1.602       .  S
C1151      C1153   1.574       .  S
C1151      H1157   1.110       .  S
C1152      H1158   1.084       .  S
C1152      C1153   1.369       .  D
C1154      H1159   1.083       .  S
C1154      C1155   1.342       .  D
C1155      C1266   1.567       .  S
C1160      C1161   1.564       .  S
C1160      C1166   1.562       .  S
C1160      C1164   1.531       .  S
C1160      C1398   1.536       .  S
C1161      H1168   1.085       .  S
C1161      C1162   1.372       .  D
C1162      C1163   1.517       .  S
C1163      C1167   1.552       .  S
C1163      C1165   1.504       .  S
C1163      H1169   1.108       .  S
C1164      H1170   1.088       .  S
C1164      C1165   1.320       .  D
C1166      H1171   1.078       .  S
C1166      C1167   1.374       .  D
C1167      C1290   1.517       .  S
C1172      C1256   1.567       .  S
C1172      C1174   1.525       .  S
C1172      C1176   1.502       .  S
C1172      C1175   1.587       .  S
C1173      C1177   1.520       .  S
C1173      C1179   1.503       .  S
C1173      C1178   1.615       .  S
C1174      C1182   1.379       .  A
C1174      C1177   1.400       .  A
C1175      C1186   1.400       .  A
C1175      C1178   1.433       .  A
C1176      C1190   1.364       .  A
C1176      C1179   1.390       .  A
C1177      C1180   1.381       .  A
C1178      C1184   1.417       .  A
C1179      C1187   1.373       .  A
C1180      N1181   1.346       .  A
C1180      H1193   1.080       .  S
N1181      C1200   1.432       .  S
N1181      C1182   1.349       .  A
C1182      H1183   1.080       .  S
C1184      N1185   1.382       .  A
C1184      H1194   1.081       .  S
N1185      C1186   1.370       .  A
C1186      H1192   1.081       .  S
C1187      N1188   1.327       .  A
C1187      H1189   1.078       .  S
N1188      C1212   1.406       .  S
N1188      C1190   1.333       .  A
C1190      H1191   1.068       .  S
C1195      C1196   1.520       .  S
C1195      C1201   1.554       .  S
C1195      C1199   1.556       .  S
C1195      C1388   1.519       .  S
C1196      H1203   1.071       .  S
C1196      C1197   1.336       .  D
C1197      C1198   1.554       .  S
C1197      C1220   1.514       .  S
C1198      C1202   1.533       .  S
C1198      C1200   1.529       .  S
C1198      H1204   1.111       .  S
C1199      H1205   1.084       .  S
C1199      C1200   1.369       .  D
C1201      H1206   1.086       .  S
C1201      C1202   1.362       .  D
C1202      N1275   1.443       .  S
C1207      C1208   1.574       .  S
C1207      C1213   1.564       .  S
C1207      C1211   1.533       .  S
C1207      C1381   1.531       .  S
C1208      H1215   1.078       .  S
C1208      C1209   1.375       .  D
C1209      C1210   1.569       .  S
C1210      C1214   1.534       .  S
C1210      C1212   1.500       .  S
C1210      H1216   1.111       .  S
C1211      H1217   1.088       .  S
C1211      C1212   1.333       .  D
C1213      H1218   1.086       .  S
C1213      C1214   1.358       .  D
C1214      N1298   1.458       .  S
C1219      C1221   1.530       .  S
C1219      C1223   1.561       .  S
C1219      C1222   1.659       .  S
C1220      C1224   1.521       .  S
C1220      C1226   1.506       .  S
C1220      C1225   1.544       .  S
C1221      C1229   1.386       .  A
C1221      C1224   1.391       .  A
C1222      C1233   1.450       .  A
C1222      C1225   1.423       .  A
C1223      C1237   1.397       .  A
C1223      C1226   1.365       .  A
C1224      C1227   1.370       .  A
C1225      C1231   1.389       .  A
C1226      C1234   1.369       .  A
C1227      N1228   1.339       .  A
C1227      H1240   1.077       .  S
N1228      C1247   1.434       .  S
N1228      C1229   1.355       .  A
C1229      H1230   1.079       .  S
C1231      N1232   1.350       .  A
C1231      H1241   1.073       .  S
N1232      C1233   1.398       .  A
C1233      H1239   1.081       .  S
C1234      N1235   1.349       .  A
C1234      H1236   1.074       .  S
N1235      C1259   1.461       .  S
N1235      C1237   1.358       .  A
C1237      H1238   1.056       .  S
C1242      C1243   1.543       .  S
C1242      C1248   1.559       .  S
C1242      C1246   1.566       .  S
C1242      C1371   1.526       .  S
C1243      H1250   1.080       .  S
C1243      C1244   1.347       .  D
C1244      C1245   1.509       .  S
C1245      C1249   1.562       .  S
C1245      C1247   1.514       .  S
C1245      H1251   1.111       .  S
C1246      H1252   1.080       .  S
C1246      C1247   1.346       .  D
C1248      H1253   1.084       .  S
C1248      C1249   1.363       .  D
C1249      C1267   1.532       .  S
C1254      C1255   1.546       .  S
C1254      C1260   1.522       .  S
C1254      C1258   1.540       .  S
C1254      C1358   1.493       .  S
C1255      H1262   1.083       .  S
C1255      C1256   1.365       .  D
C1256      C1257   1.603       .  S
C1257      C1261   1.611       .  S
C1257      C1259   1.557       .  S
C1257      H1263   1.110       .  S
C1258      H1264   1.087       .  S
C1258      C1259   1.351       .  D
C1260      H1265   1.087       .  S
C1260      C1261   1.325       .  D
C1261      C1289   1.561       .  S
C1266      C1268   1.530       .  S
C1266      C1270   1.539       .  S
C1266      C1269   1.626       .  S
C1267      C1271   1.517       .  S
C1267      C1273   1.530       .  S
C1267      C1272   1.569       .  S
C1268      C1276   1.376       .  A
C1268      C1271   1.368       .  A
C1269      C1272   1.431       .  A
C1270      C1284   1.386       .  A
C1270      C1273   1.368       .  A
C1271      C1274   1.374       .  A
C1273      C1281   1.380       .  A
C1274      N1275   1.348       .  A
C1274      H1287   1.077       .  S
N1275      C1276   1.362       .  A
C1276      H1277   1.064       .  S
C1278      N1279   1.369       .  A
C1278      H1288   1.082       .  S
N1279      C1280   1.384       .  A
N1279      N1302   1.447       .  S
C1280      H1286   1.081       .  S
C1281      N1282   1.357       .  A
C1281      H1283   1.078       .  S
N1282      C1284   1.368       .  A
C1284      H1285   1.075       .  S
C1289      C1291   1.528       .  S
C1289      C1293   1.529       .  S
C1289      C1292   1.632       .  S
C1290      C1294   1.532       .  S
C1290      C1296   1.529       .  S
C1290      C1295   1.553       .  S
C1291      C1299   1.381       .  A
C1291      C1294   1.376       .  A
C1292      C1303   1.431       .  A
C1292      C1295   1.425       .  A
C1293      C1307   1.381       .  A
C1293      C1296   1.362       .  A
C1294      C1297   1.385       .  A
C1295      C1301   1.391       .  A
C1296      C1304   1.379       .  A
C1297      N1298   1.356       .  A
C1297      H1310   1.078       .  S
N1298      C1299   1.356       .  A
C1299      H1300   1.073       .  S
C1301      N1302   1.362       .  A
C1301      H1311   1.082       .  S
N1302      C1303   1.389       .  A
C1303      H1309   1.081       .  S
C1304      N1305   1.351       .  A
C1304      H1306   1.067       .  S
N1305      C1307   1.363       .  A
C1307      H1308   1.077       .  S
N1312      N1313   1.321       .  A
N1312      N2036   1.317       .  A
N1312     Mn1341   2.219       .  S
N1313      C2397   1.353   1_556  A
N1314      N2034   1.303       .  A
N1314      N1315   1.321       .  A
N1314     Mn1330   2.146       .  S
N1316      N2032   1.303       .  A
N1316      N1317   1.299       .  A
N1316     Mn1341   2.139       .  S
N1317      C2757   1.350       .  A
N1318      N2030   1.317   1_565  A
N1318      N1319   1.307   1_566  A
N1318     Mn1330   2.118       .  S
C1320      N2390   1.353   1_455  A
C1320      C1428   1.458       .  S
C1321      N2753   1.350       .  A
C1321      C1401   1.463       .  S
N1322      N2764   1.315       .  A
N1322      N1323   1.330       .  A
N1322     Mn1352   2.225       .  S
N1323      C2767   1.359       .  A
N1324      N1325   1.316       .  A
N1324      N2762   1.307   1_455  A
N1324     Mn1330   2.166   1_554  S
N1326      N2760   1.307       .  A
N1326      N1327   1.309       .  A
N1326     Mn1352   2.152   1_554  S
N1327      C2409   1.345       .  A
N1328      N2758   1.315   1_455  A
N1328      N1329   1.308       .  A
N1328     Mn1330   2.151       .  S
N1329      C1331   1.338       .  A
Mn1330    Cl2790   2.548   1_455  S
C1331      N2759   1.359   1_455  A
C1331      C1418   1.488       .  S
C1332      N2404   1.346   1_455  A
C1332      C1368   1.481       .  S
N1333      N1334   1.318       .  A
N1333     Mn1341   2.195       .  S
N1334      C1342   1.357       .  A
N1335      N1336   1.316       .  A
N1335     Mn1353   2.171   1_545  S
N1337      N1338   1.312       .  A
N1337     Mn1341   2.141       .  S
N1339     Mn1353   2.167       .  S
N1340      C1342   1.351       .  A
C1342      C1378   1.467       .  S
C1343      C1411   1.445       .  S
N1344      N1345   1.311   1_556  A
N1344      N1350   1.315       .  A
N1344     Mn1352   2.173       .  S
N1346      N1347   1.308       .  A
N1346      N1348   1.304       .  A
N1346     Mn1353   2.140       .  S
N1347      C1356   1.348       .  A
N1348      N1349   1.310       .  A
N1348     Mn1352   2.109       .  S
N1349      C1356   1.341       .  A
N1350      N1351   1.319       .  A
N1350     Mn1353   2.179       .  S
Mn1352    Cl1354   2.477       .  S
Mn1353    Cl1354   2.524       .  S
Cl1354    Mn2766   2.548       .  S
C1355      C1391   1.453       .  S
C1356      C1361   1.433       .  S
C1357      C1358   1.430       .  A
C1357      C1362   1.382       .  A
C1357     Br1364   1.955       .  S
C1358      C1359   1.417       .  A
C1359      C1360   1.395       .  A
C1359     Br1366   1.938       .  S
C1360      C1361   1.406       .  A
C1360     Br1365   1.936       .  S
C1361      C1362   1.399       .  A
C1362     Br1363   1.947       .  S
C1367      C1368   1.417       .  A
C1367      C1372   1.400       .  A
C1367     Br1374   1.934   1_455  S
C1368      C1369   1.439       .  A
C1369      C1370   1.406       .  A
C1370      C1371   1.396       .  A
C1370     Br1375   1.919       .  S
C1371      C1372   1.404       .  A
C1372     Br1373   1.923   1_455  S
C1377      C1378   1.406       .  A
C1377      C1382   1.399       .  A
C1377     Br1384   1.943       .  S
C1378      C1379   1.406       .  A
C1379      C1380   1.406       .  A
C1380      C1381   1.418       .  A
C1380     Br1385   1.926       .  S
C1381      C1382   1.438       .  A
C1382     Br1383   1.956       .  S
C1387      C1388   1.428       .  A
C1387      C1392   1.401       .  A
C1387     Br1394   1.932       .  S
C1388      C1389   1.437       .  A
C1389      C1390   1.400       .  A
C1389     Br1396   1.940       .  S
C1390      C1391   1.389       .  A
C1391      C1392   1.394       .  A
C1392     Br1393   1.921       .  S
C1397      C1398   1.418       .  A
C1397      C1402   1.416       .  A
C1397     Br1404   1.927       .  S
C1398      C1399   1.430       .  A
C1399      C1400   1.400       .  A
C1399     Br1406   1.935       .  S
C1400      C1401   1.392       .  A
C1400     Br1405   1.928       .  S
C1401      C1402   1.412       .  A
C1402     Br1403   1.924       .  S
C1407      C1408   1.408       .  A
C1407      C1412   1.398       .  A
C1407     Br1414   1.933       .  S
C1408      C1409   1.419       .  A
C1409      C1410   1.395       .  A
C1409     Br1416   1.935       .  S
C1410      C1411   1.398       .  A
C1411      C1412   1.408       .  A
C1417      C1418   1.414       .  A
C1417      C1422   1.393       .  A
C1417     Br1424   1.938       .  S
C1418      C1419   1.421       .  A
C1419      C1420   1.420       .  A
C1419     Br2862   1.921   1_455  S
C1420      C1421   1.407       .  A
C1420     Br1425   1.924   1_455  S
C1421      C1422   1.423       .  A
C1422     Br1423   1.946       .  S
Br1426     C2855   1.921       .  S
C1427      C1428   1.413       .  A
C1427      C1432   1.397       .  A
C1428      C1429   1.397       .  A
C1429      C1430   1.395       .  A
C1430      C1431   1.430       .  A
C1430     Br1435   1.941       .  S
C1431      C1432   1.404       .  A
C1432     Br1433   1.930       .  S
C1437      C1438   1.561       .  S
C1437      C1443   1.546       .  S
C1437      C1441   1.522       .  S
C1437      C1790   1.508       .  S
C1438      H1445   1.082       .  S
C1438      C1439   1.372       .  D
C1439      C1440   1.601       .  S
C1439      C1484   1.584       .  S
C1440      C1444   1.578       .  S
C1440      C1442   1.629       .  S
C1440      H1446   1.108       .  S
C1441      H1447   1.082       .  S
C1441      C1442   1.334       .  D
C1442      C1449   1.598       .  S
C1443      H1448   1.087       .  S
C1443      C1444   1.346       .  D
C1444      N1641   1.474       .  S
C1449      C1451   1.491       .  S
C1449      C1453   1.526       .  S
C1449      C1452   1.610       .  S
C1450      C1477   1.604       .  S
C1450      C1454   1.520       .  S
C1450      C1456   1.546       .  S
C1450      C1455   1.594       .  S
C1451      C1459   1.361       .  A
C1451      C1454   1.389       .  A
C1452      C1455   1.436       .  A
C1453      C1467   1.383       .  A
C1453      C1456   1.406       .  A
C1454      C1457   1.371       .  A
C1456      C1464   1.387       .  A
C1457      N1458   1.340       .  A
C1457      H1470   1.067       .  S
N1458      C1603   1.413       .  S
N1458      C1459   1.324       .  A
C1459      H1460   1.072       .  S
C1461      N1462   1.376       .  A
C1461      H1471   1.082       .  S
N1462      C1463   1.374       .  A
N1462      N1544   1.447       .  S
C1463      H1469   1.080       .  S
C1464      N1465   1.360       .  A
C1464      H1466   1.082       .  S
N1465      C1521   1.443       .  S
N1465      C1467   1.351       .  A
C1467      H1468   1.083       .  S
C1472      C1473   1.547       .  S
C1472      C1478   1.542       .  S
C1472      C1476   1.574       .  S
C1472      C1780   1.538       .  S
C1473      H1480   1.085       .  S
C1473      C1474   1.354       .  D
C1474      C1475   1.607       .  S
C1474      C1578   1.596       .  S
C1475      C1479   1.563       .  S
C1475      C1477   1.599       .  S
C1475      H1481   1.105       .  S
C1476      H1482   1.083       .  S
C1476      C1477   1.386       .  D
C1478      H1483   1.088       .  S
C1478      C1479   1.330       .  D
C1479      N1664   1.458       .  S
C1484      C1486   1.490       .  S
C1484      C1488   1.566       .  S
C1484      C1487   1.656       .  S
C1485      C1568   1.548       .  S
C1485      C1489   1.515       .  S
C1485      C1491   1.554       .  S
C1485      C1490   1.547       .  S
C1486      C1494   1.361       .  A
C1486      C1489   1.360       .  A
C1487      C1498   1.442   1_545  A
C1487      C1490   1.426       .  A
C1488      C1502   1.401       .  A
C1488      C1491   1.392       .  A
C1489      C1492   1.352       .  A
C1490      C2214   1.390   1_545  A
C1491      C1499   1.394       .  A
C1492      N1493   1.343       .  A
C1492      H1505   1.077       .  S
N1493      C1524   1.410       .  S
N1493      C1494   1.344       .  A
C1494      H1495   1.056       .  S
C1496      C2208   1.390       .  A
C1496      N1497   1.366       .  A
C1496      H1506   1.082       .  S
N1497      C2216   1.396       .  A
N1497      N1591   1.454       .  S
C1498      N2215   1.396       .  A
C1498      H2222   1.081       .  S
C1499      N1500   1.360       .  A
C1499      H1501   1.080       .  S
N1500      C1512   1.486       .  S
N1500      C1502   1.363       .  A
C1502      H1503   1.066       .  S
H1504      C2216   1.081       .  S
C1507      C1508   1.531       .  S
C1507      C1513   1.541       .  S
C1507      C1511   1.559       .  S
C1507      C1767   1.513       .  S
C1508      H1515   1.086       .  S
C1508      C1509   1.347       .  D
C1509      C1510   1.621       .  S
C1509      C1532   1.581       .  S
C1510      C1514   1.602       .  S
C1510      C1512   1.574       .  S
C1510      H1516   1.110       .  S
C1511      H1517   1.084       .  S
C1511      C1512   1.369       .  D
C1513      H1518   1.083       .  S
C1513      C1514   1.343       .  D
C1514      C1625   1.567       .  S
C1519      C1520   1.564       .  S
C1519      C1525   1.562       .  S
C1519      C1523   1.532       .  S
C1519      C1757   1.536       .  S
C1520      H1527   1.085       .  S
C1520      C1521   1.372       .  D
C1521      C1522   1.518       .  S
C1522      C1526   1.551       .  S
C1522      C1524   1.504       .  S
C1522      H1528   1.108       .  S
C1523      H1529   1.087       .  S
C1523      C1524   1.320       .  D
C1525      H1530   1.078       .  S
C1525      C1526   1.374       .  D
C1526      C1649   1.516       .  S
C1531      C1615   1.566       .  S
C1531      C1533   1.524       .  S
C1531      C1535   1.502       .  S
C1531      C1534   1.587       .  S
C1532      C1536   1.520       .  S
C1532      C1538   1.503       .  S
C1532      C1537   1.615       .  S
C1533      C1541   1.379       .  A
C1533      C1536   1.399       .  A
C1534      C1545   1.400       .  A
C1534      C1537   1.433       .  A
C1535      C1549   1.364       .  A
C1535      C1538   1.390       .  A
C1536      C1539   1.381       .  A
C1537      C1543   1.417       .  A
C1538      C1546   1.373       .  A
C1539      N1540   1.346       .  A
C1539      H1552   1.080       .  S
N1540      C1559   1.433       .  S
N1540      C1541   1.349       .  A
C1541      H1542   1.080       .  S
C1543      N1544   1.382       .  A
C1543      H1553   1.081       .  S
N1544      C1545   1.370       .  A
C1545      H1551   1.081       .  S
C1546      N1547   1.327       .  A
C1546      H1548   1.078       .  S
N1547      C1571   1.407       .  S
N1547      C1549   1.334       .  A
C1549      H1550   1.068       .  S
C1554      C1555   1.520       .  S
C1554      C1560   1.553       .  S
C1554      C1558   1.556       .  S
C1554      C1747   1.519       .  S
C1555      H1562   1.070       .  S
C1555      C1556   1.337       .  D
C1556      C1557   1.554       .  S
C1556      C1579   1.514       .  S
C1557      C1561   1.532       .  S
C1557      C1559   1.529       .  S
C1557      H1563   1.111       .  S
C1558      H1564   1.084       .  S
C1558      C1559   1.369       .  D
C1560      H1565   1.085       .  S
C1560      C1561   1.362       .  D
C1561      N1634   1.443       .  S
C1566      C1567   1.574       .  S
C1566      C1572   1.564       .  S
C1566      C1570   1.533       .  S
C1566      C1740   1.530       .  S
C1567      H1574   1.078       .  S
C1567      C1568   1.375       .  D
C1568      C1569   1.568       .  S
C1569      C1573   1.534       .  S
C1569      C1571   1.500       .  S
C1569      H1575   1.111       .  S
C1570      H1576   1.088       .  S
C1570      C1571   1.333       .  D
C1572      H1577   1.086       .  S
C1572      C1573   1.358       .  D
C1573      N1657   1.458       .  S
C1578      C1580   1.530       .  S
C1578      C1582   1.561       .  S
C1578      C1581   1.659       .  S
C1579      C1583   1.521       .  S
C1579      C1585   1.506       .  S
C1579      C1584   1.544       .  S
C1580      C1588   1.387       .  A
C1580      C1583   1.392       .  A
C1581      C1592   1.450       .  A
C1581      C1584   1.423       .  A
C1582      C1596   1.397       .  A
C1582      C1585   1.365       .  A
C1583      C1586   1.371       .  A
C1584      C1590   1.389       .  A
C1585      C1593   1.370       .  A
C1586      N1587   1.340       .  A
C1586      H1599   1.077       .  S
N1587      C1606   1.435       .  S
N1587      C1588   1.356       .  A
C1588      H1589   1.079       .  S
C1590      N1591   1.350       .  A
C1590      H1600   1.073       .  S
N1591      C1592   1.399       .  A
C1592      H1598   1.081       .  S
C1593      N1594   1.350       .  A
C1593      H1595   1.074       .  S
N1594      C1618   1.461       .  S
N1594      C1596   1.358       .  A
C1596      H1597   1.055       .  S
C1601      C1602   1.543       .  S
C1601      C1607   1.559       .  S
C1601      C1605   1.566       .  S
C1601      C1730   1.526       .  S
C1602      H1609   1.080       .  S
C1602      C1603   1.348       .  D
C1603      C1604   1.509       .  S
C1604      C1608   1.562       .  S
C1604      C1606   1.514       .  S
C1604      H1610   1.111       .  S
C1605      H1611   1.080       .  S
C1605      C1606   1.347       .  D
C1607      H1612   1.084   1_554  S
C1607      C1608   1.363       .  D
C1608      C1626   1.532       .  S
C1613      C1614   1.545       .  S
C1613      C1619   1.521       .  S
C1613      C1617   1.541       .  S
C1613      C1717   1.492       .  S
C1614      H1621   1.083       .  S
C1614      C1615   1.364       .  D
C1615      C1616   1.603       .  S
C1616      C1620   1.611       .  S
C1616      C1618   1.557       .  S
C1616      H1622   1.110       .  S
C1617      H1623   1.087       .  S
C1617      C1618   1.352       .  D
C1619      H1624   1.087       .  S
C1619      C1620   1.325       .  D
C1620      C1648   1.560       .  S
C1625      C1627   1.530       .  S
C1625      C1629   1.539       .  S
C1625      C1628   1.625       .  S
C1626      C1630   1.517       .  S
C1626      C1632   1.529       .  S
C1626      C1631   1.570       .  S
C1627      C1635   1.376       .  A
C1627      C1630   1.368       .  A
C1628      C1998   1.425   1_554  A
C1628      C1631   1.431       .  A
C1629      C1643   1.386       .  A
C1629      C1632   1.368       .  A
C1630      C1633   1.374       .  A
C1631      C1996   1.398   1_554  A
C1632      C1640   1.380       .  A
C1633      N1634   1.348       .  A
C1633      H1646   1.077       .  S
N1634      C1635   1.362       .  A
C1635      H1636   1.064       .  S
C1637      C1990   1.398       .  A
C1637      N1638   1.369       .  A
C1637      H1647   1.082       .  S
N1638      C1639   1.384       .  A
N1638      N1661   1.447       .  S
C1639      C1987   1.425       .  A
C1639      H1645   1.081       .  S
C1640      N1641   1.357       .  A
C1640      H1642   1.078       .  S
N1641      C1643   1.368       .  A
C1643      H1644   1.075       .  S
C1648      C1650   1.527       .  S
C1648      C1652   1.529       .  S
C1648      C1651   1.632       .  S
C1649      C1653   1.532       .  S
C1649      C1655   1.529       .  S
C1649      C1654   1.553       .  S
C1650      C1658   1.381       .  A
C1650      C1653   1.376       .  A
C1651      C1662   1.431       .  A
C1651      C1654   1.424       .  A
C1652      C1666   1.382       .  A
C1652      C1655   1.362       .  A
C1653      C1656   1.385       .  A
C1654      C1660   1.391       .  A
C1655      C1663   1.379       .  A
C1656      N1657   1.356       .  A
C1656      H1669   1.078       .  S
N1657      C1658   1.356       .  A
C1658      H1659   1.073       .  S
C1660      N1661   1.362       .  A
C1660      H1670   1.082       .  S
N1661      C1662   1.389       .  A
C1662      H1668   1.081       .  S
C1663      N1664   1.351       .  A
C1663      H1665   1.067       .  S
N1664      C1666   1.363       .  A
C1666      H1667   1.077       .  S
N1671      N1672   1.321   1_455  A
N1671     Mn1700   2.220   1_455  S
N1673      N1674   1.321       .  A
N1673     Mn1689   2.147       .  S
N1674      C2398   1.354       .  A
N1675      N1676   1.299       .  A
N1675     Mn1700   2.140   1_465  S
N1677      N1678   1.307       .  A
N1677     Mn1689   2.117       .  S
N1678      C2756   1.338       .  A
C1679      N2755   1.338       .  A
C1679      C1787   1.458       .  S
C1680      N2392   1.354       .  A
C1680      C1760   1.463       .  S
N1681      N1682   1.330       .  A
N1681     Mn1711   2.227       .  S
N1683      N1684   1.316       .  A
N1683     Mn1689   2.165       .  S
N1684      C2050   1.347       .  A
N1685      N1686   1.310       .  A
N1685     Mn1711   2.153       .  S
N1687      N1688   1.308       .  A
N1687     Mn1689   2.152       .  S
N1688      C1690   1.338       .  A
C1690      C1777   1.489       .  S
C1691      N2043   1.347       .  A
C1691      C1727   1.482       .  S
N1692      N1693   1.318       .  A
N1692      N2416   1.309       .  A
N1692     Mn1700   2.194   1_565  S
N1693      C1701   1.357       .  A
N1694      N2414   1.307       .  A
N1694      N1695   1.315       .  A
N1694     Mn1712   2.169       .  S
N1695      C2779   1.353       .  A
N1696      N2412   1.307       .  A
N1696      N1697   1.311       .  A
N1696     Mn1700   2.141       .  S
N1697      C2061   1.343       .  A
N1698      N2410   1.309       .  A
N1698      N2417   1.312       .  A
N1698     Mn1712   2.166       .  S
N1699      C1701   1.351       .  A
N1699      N2416   1.312       .  A
Mn1700    Cl2431   2.473   1_545  S
C1701      C1737   1.467       .  S
C1702      N2772   1.353       .  A
C1702      N2056   1.344       .  A
C1702      C1770   1.445       .  S
N1703      N1704   1.311       .  A
N1703      N1709   1.315       .  A
N1703     Mn1711   2.176       .  S
N1704      C2073   1.351       .  A
N1705      N1706   1.308       .  A
N1705      N1707   1.305       .  A
N1705     Mn1712   2.137       .  S
N1706      C1715   1.347       .  A
N1707      N1708   1.310       .  A
N1707     Mn1711   2.110       .  S
N1708      C1715   1.341       .  A
N1709      N1710   1.319       .  A
N1709     Mn1712   2.177       .  S
N1710      C2073   1.350       .  A
Mn1711    Cl1713   2.478       .  S
Mn1712    Cl1713   2.524       .  S
Cl1713    Mn2418   2.473       .  S
C1714      N2063   1.350       .  A
C1714      N2069   1.351   1_554  A
C1714      C1750   1.453       .  S
C1715      C1720   1.431       .  S
C1716      C1717   1.430       .  A
C1716      C1721   1.382       .  A
C1716     Br1723   1.955       .  S
C1717      C1718   1.417       .  A
C1718      C1719   1.395       .  A
C1718     Br1725   1.938       .  S
C1719      C1720   1.406       .  A
C1719     Br1724   1.936       .  S
C1720      C1721   1.399       .  A
C1721     Br1722   1.947       .  S
C1726      C1727   1.418       .  A
C1726      C1731   1.400       .  A
C1726     Br1733   1.934       .  S
C1727      C1728   1.439       .  A
C1728      C1729   1.406       .  A
C1728     Br2094   1.941   1_554  S
C1729      C1730   1.396       .  A
C1729     Br1734   1.920   1_554  S
C1730      C1731   1.404       .  A
C1731     Br1732   1.924       .  S
Br1735     C2087   1.941       .  S
C1736      C1737   1.407   1_545  A
C1736      C1741   1.399       .  A
C1736     Br1743   1.943       .  S
C1737      C1738   1.406       .  A
C1738      C1739   1.405       .  A
C1738     Br2463   1.930       .  S
C1739      C1740   1.417   1_565  A
C1739     Br1744   1.926       .  S
C1740      C1741   1.438       .  A
C1741     Br1742   1.956       .  S
Br1745     C2456   1.930       .  S
C1746      C1747   1.427       .  A
C1746      C1751   1.401       .  A
C1746     Br1753   1.932       .  S
C1747      C1748   1.436       .  A
C1748      C1749   1.400       .  A
C1748     Br1755   1.940       .  S
C1749      C1750   1.390       .  A
C1749     Br2113   1.926       .  S
C1750      C1751   1.395       .  A
C1751     Br1752   1.921       .  S
Br1754     C2108   1.926       .  S
C1756      C1757   1.418       .  A
C1756      C1761   1.416       .  A
C1756     Br1763   1.927       .  S
C1757      C1758   1.430       .  A
C1758      C1759   1.399       .  A
C1758     Br1765   1.935       .  S
C1759      C1760   1.392   1_545  A
C1759     Br1764   1.928   1_545  S
C1760      C1761   1.412   1_565  A
C1761     Br1762   1.924       .  S
C1766      C1767   1.409       .  A
C1766      C1771   1.397       .  A
C1766     Br1773   1.934       .  S
C1767      C1768   1.419       .  A
C1768      C1769   1.395   1_554  A
C1768     Br1775   1.935       .  S
C1769      C1770   1.398       .  A
C1769     Br2133   1.930       .  S
C1770      C1771   1.408   1_556  A
C1771     Br2490   1.925       .  S
Br1772     C2489   1.925       .  S
Br1774     C2128   1.930       .  S
C1776      C1777   1.414       .  A
C1776      C1781   1.393       .  A
C1776     Br1783   1.937       .  S
C1777      C1778   1.421       .  A
C1778      C1779   1.420       .  A
C1779      C1780   1.407       .  A
C1779     Br1784   1.924       .  S
C1780      C1781   1.422       .  A
C1781     Br1782   1.945       .  S
C1786      C1787   1.412       .  A
C1786      C1791   1.397       .  A
C1786     Br2511   1.928   1_545  S
C1787      C1788   1.397       .  A
C1788      C1789   1.395       .  A
C1788     Br2154   1.931       .  S
C1789      C1790   1.430       .  A
C1789     Br1794   1.941       .  S
C1790      C1791   1.405       .  A
C1791     Br1792   1.930       .  S
Br1793     C2504   1.928       .  S
Br1795     C2147   1.931       .  S
C1796      C1797   1.561       .  S
C1796      C1802   1.547       .  S
C1796      C1800   1.521       .  S
C1796      C2149   1.508       .  S
C1797      H1804   1.082       .  S
C1797      C1798   1.373       .  D
C1798      C1799   1.601       .  S
C1798      C1843   1.585       .  S
C1799      C1803   1.578       .  S
C1799      C1801   1.629       .  S
C1799      H1805   1.108       .  S
C1800      H1806   1.082       .  S
C1800      C1801   1.334       .  D
C1801      C1808   1.598       .  S
C1802      H1807   1.086       .  S
C1802      C1803   1.346       .  D
C1803      N2000   1.474       .  S
C1808      C1810   1.491       .  S
C1808      C1812   1.526       .  S
C1808      C1811   1.610       .  S
C1809      C1836   1.603       .  S
C1809      C1813   1.520       .  S
C1809      C1815   1.546       .  S
C1809      C1814   1.594       .  S
C1810      C1818   1.360       .  A
C1810      C1813   1.389       .  A
C1811      C1814   1.436       .  A
C1812      C1826   1.383       .  A
C1812      C1815   1.406       .  A
C1813      C1816   1.371       .  A
C1815      C1823   1.387       .  A
C1816      N1817   1.340       .  A
C1816      H1829   1.067       .  S
N1817      C1962   1.413       .  S
N1817      C1818   1.324       .  A
C1818      H1819   1.072       .  S
C1820      N1821   1.376       .  A
C1820      H1830   1.082       .  S
N1821      C1822   1.374       .  A
N1821      N1903   1.447       .  S
C1822      H1828   1.080       .  S
C1823      N1824   1.360       .  A
C1823      H1825   1.082       .  S
N1824      C1880   1.443       .  S
N1824      C1826   1.352       .  A
C1826      H1827   1.083       .  S
C1831      C1832   1.547       .  S
C1831      C1837   1.542       .  S
C1831      C1835   1.574       .  S
C1831      C2139   1.537       .  S
C1832      H1839   1.085       .  S
C1832      C1833   1.353       .  D
C1833      C1834   1.607       .  S
C1833      C1937   1.595       .  S
C1834      C1838   1.563       .  S
C1834      C1836   1.599       .  S
C1834      H1840   1.105       .  S
C1835      H1841   1.083       .  S
C1835      C1836   1.385       .  D
C1837      H1842   1.088       .  S
C1837      C1838   1.330       .  D
C1838      N2023   1.458       .  S
C1843      C1845   1.490       .  S
C1843      C1847   1.566       .  S
C1843      C1846   1.656       .  S
C1844      C1927   1.549       .  S
C1844      C1848   1.514       .  S
C1844      C1850   1.553       .  S
C1844      C1849   1.547       .  S
C1845      C1853   1.362       .  A
C1845      C1848   1.359       .  A
C1846      C1857   1.442   1_545  A
C1846      C1849   1.426       .  A
C1847      C1861   1.401       .  A
C1847      C1850   1.392       .  A
C1848      C1851   1.352       .  A
C1849      C2573   1.390   1_545  A
C1850      C1858   1.393       .  A
C1851      N1852   1.343       .  A
C1851      H1864   1.077       .  S
N1852      C1883   1.410       .  S
N1852      C1853   1.344       .  A
C1853      H1854   1.056       .  S
C1855      C2567   1.390       .  A
C1855      N1856   1.366       .  A
C1855      H1865   1.082       .  S
N1856      C2575   1.396       .  A
N1856      N1950   1.454       .  S
C1857      N2574   1.396       .  A
C1857      H2581   1.081       .  S
C1858      N1859   1.360       .  A
C1858      H1860   1.080       .  S
N1859      C1871   1.485       .  S
N1859      C1861   1.363       .  A
C1861      H1862   1.066       .  S
H1863      C2575   1.081       .  S
C1866      C1867   1.531       .  S
C1866      C1872   1.541       .  S
C1866      C1870   1.559       .  S
C1866      C2126   1.513       .  S
C1867      H1874   1.085       .  S
C1867      C1868   1.347       .  D
C1868      C1869   1.621       .  S
C1868      C1891   1.582       .  S
C1869      C1873   1.602       .  S
C1869      C1871   1.574       .  S
C1869      H1875   1.110       .  S
C1870      H1876   1.084       .  S
C1870      C1871   1.369       .  D
C1872      H1877   1.083       .  S
C1872      C1873   1.342       .  D
C1873      C1984   1.567       .  S
C1878      C1879   1.564       .  S
C1878      C1884   1.562       .  S
C1878      C1882   1.531       .  S
C1878      C2116   1.536       .  S
C1879      H1886   1.085       .  S
C1879      C1880   1.372       .  D
C1880      C1881   1.517       .  S
C1881      C1885   1.552       .  S
C1881      C1883   1.504       .  S
C1881      H1887   1.108       .  S
C1882      H1888   1.088       .  S
C1882      C1883   1.320       .  D
C1884      H1889   1.078       .  S
C1884      C1885   1.374       .  D
C1885      C2008   1.517       .  S
C1890      C1974   1.567       .  S
C1890      C1892   1.525       .  S
C1890      C1894   1.502       .  S
C1890      C1893   1.587       .  S
C1891      C1895   1.520       .  S
C1891      C1897   1.503       .  S
C1891      C1896   1.615       .  S
C1892      C1900   1.379       .  A
C1892      C1895   1.400       .  A
C1893      C1904   1.400       .  A
C1893      C1896   1.433       .  A
C1894      C1908   1.364       .  A
C1894      C1897   1.390       .  A
C1895      C1898   1.381       .  A
C1896      C1902   1.417       .  A
C1897      C1905   1.373       .  A
C1898      N1899   1.346       .  A
C1898      H1911   1.080       .  S
N1899      C1918   1.432       .  S
N1899      C1900   1.349       .  A
C1900      H1901   1.080       .  S
C1902      N1903   1.382       .  A
C1902      H1912   1.081       .  S
N1903      C1904   1.370       .  A
C1904      H1910   1.081       .  S
C1905      N1906   1.327       .  A
C1905      H1907   1.078       .  S
N1906      C1930   1.406       .  S
N1906      C1908   1.334       .  A
C1908      H1909   1.068       .  S
C1913      C1914   1.520       .  S
C1913      C1919   1.554       .  S
C1913      C1917   1.556       .  S
C1913      C2106   1.519       .  S
C1914      H1921   1.071       .  S
C1914      C1915   1.336       .  D
C1915      C1916   1.554       .  S
C1915      C1938   1.514       .  S
C1916      C1920   1.533       .  S
C1916      C1918   1.529       .  S
C1916      H1922   1.111       .  S
C1917      H1923   1.084       .  S
C1917      C1918   1.369       .  D
C1919      H1924   1.086       .  S
C1919      C1920   1.362       .  D
C1920      N1993   1.443       .  S
C1925      C1926   1.574       .  S
C1925      C1931   1.564       .  S
C1925      C1929   1.533       .  S
C1925      C2099   1.531       .  S
C1926      H1933   1.078       .  S
C1926      C1927   1.375       .  D
C1927      C1928   1.569       .  S
C1928      C1932   1.534       .  S
C1928      C1930   1.500       .  S
C1928      H1934   1.111       .  S
C1929      H1935   1.088       .  S
C1929      C1930   1.332       .  D
C1931      H1936   1.086       .  S
C1931      C1932   1.358       .  D
C1932      N2016   1.458       .  S
C1937      C1939   1.530       .  S
C1937      C1941   1.561       .  S
C1937      C1940   1.659       .  S
C1938      C1942   1.521       .  S
C1938      C1944   1.506       .  S
C1938      C1943   1.544       .  S
C1939      C1947   1.386       .  A
C1939      C1942   1.391       .  A
C1940      C1951   1.450       .  A
C1940      C1943   1.423       .  A
C1941      C1955   1.397       .  A
C1941      C1944   1.365       .  A
C1942      C1945   1.370       .  A
C1943      C1949   1.389       .  A
C1944      C1952   1.369       .  A
C1945      N1946   1.339       .  A
C1945      H1958   1.077       .  S
N1946      C1965   1.434       .  S
N1946      C1947   1.355       .  A
C1947      H1948   1.079       .  S
C1949      N1950   1.350       .  A
C1949      H1959   1.073       .  S
N1950      C1951   1.398       .  A
C1951      H1957   1.081       .  S
C1952      N1953   1.349       .  A
C1952      H1954   1.074       .  S
N1953      C1977   1.461       .  S
N1953      C1955   1.358       .  A
C1955      H1956   1.056       .  S
C1960      C1961   1.543       .  S
C1960      C1966   1.559       .  S
C1960      C1964   1.566       .  S
C1960      C2089   1.526       .  S
C1961      H1968   1.079       .  S
C1961      C1962   1.347       .  D
C1962      C1963   1.509       .  S
C1963      C1967   1.562       .  S
C1963      C1965   1.514       .  S
C1963      H1969   1.111       .  S
C1964      H1970   1.080       .  S
C1964      C1965   1.346       .  D
C1966      H1971   1.084       .  S
C1966      C1967   1.363       .  D
C1967      C1985   1.532       .  S
C1972      C1973   1.546       .  S
C1972      C1978   1.522       .  S
C1972      C1976   1.540       .  S
C1972      C2076   1.493       .  S
C1973      H1980   1.083       .  S
C1973      C1974   1.365       .  D
C1974      C1975   1.603       .  S
C1975      C1979   1.611       .  S
C1975      C1977   1.557       .  S
C1975      H1981   1.110       .  S
C1976      H1982   1.087       .  S
C1976      C1977   1.351       .  D
C1978      H1983   1.087       .  S
C1978      C1979   1.325       .  D
C1979      C2007   1.561       .  S
C1984      C1986   1.530       .  S
C1984      C1988   1.539       .  S
C1984      C1987   1.626       .  S
C1985      C1989   1.517       .  S
C1985      C1991   1.530       .  S
C1985      C1990   1.569       .  S
C1986      C1994   1.376       .  A
C1986      C1989   1.368       .  A
C1987      C1990   1.431       .  A
C1988      C2002   1.386       .  A
C1988      C1991   1.368       .  A
C1989      C1992   1.374       .  A
C1991      C1999   1.380       .  A
C1992      N1993   1.348       .  A
C1992      H2005   1.077       .  S
N1993      C1994   1.362       .  A
C1994      H1995   1.064       .  S
C1996      N1997   1.369       .  A
C1996      H2006   1.082       .  S
N1997      C1998   1.384       .  A
N1997      N2020   1.447       .  S
C1998      H2004   1.081       .  S
C1999      N2000   1.357       .  A
C1999      H2001   1.078       .  S
N2000      C2002   1.368       .  A
C2002      H2003   1.075       .  S
C2007      C2009   1.528       .  S
C2007      C2011   1.529       .  S
C2007      C2010   1.632       .  S
C2008      C2012   1.532       .  S
C2008      C2014   1.529       .  S
C2008      C2013   1.553       .  S
C2009      C2017   1.381       .  A
C2009      C2012   1.376       .  A
C2010      C2021   1.431       .  A
C2010      C2013   1.425       .  A
C2011      C2025   1.381       .  A
C2011      C2014   1.362       .  A
C2012      C2015   1.385       .  A
C2013      C2019   1.391       .  A
C2014      C2022   1.379       .  A
C2015      N2016   1.356       .  A
C2015      H2028   1.078       .  S
N2016      C2017   1.356       .  A
C2017      H2018   1.073       .  S
C2019      N2020   1.362       .  A
C2019      H2029   1.082       .  S
N2020      C2021   1.389       .  A
C2021      H2027   1.081       .  S
C2022      N2023   1.351       .  A
C2022      H2024   1.067       .  S
N2023      C2025   1.363       .  A
C2025      H2026   1.077       .  S
N2030      N2031   1.321   1_455  A
N2030     Mn2059   2.219   1_455  S
N2032      N2033   1.321       .  A
N2032     Mn2048   2.146       .  S
N2033      C2757   1.354       .  A
N2034      N2035   1.299       .  A
N2034     Mn2059   2.139   1_465  S
N2036      N2037   1.307   1_556  A
N2036     Mn2048   2.118       .  S
N2037      C2397   1.338       .  A
C2038      N2396   1.338       .  A
C2038      C2146   1.458       .  S
C2039      N2751   1.354       .  A
C2039      C2119   1.463       .  S
N2040      N2041   1.330       .  A
N2040     Mn2070   2.225       .  S
N2042      N2043   1.316       .  A
N2042     Mn2048   2.166   1_554  S
N2044      N2045   1.309       .  A
N2044     Mn2070   2.152   1_554  S
N2046      N2047   1.308       .  A
N2046     Mn2048   2.151       .  S
N2047      C2049   1.338       .  A
C2049      C2136   1.488       .  S
C2050      C2086   1.481       .  S
N2051      N2052   1.318       .  A
N2051      N2775   1.309       .  A
N2051     Mn2059   2.195   1_565  S
N2052      C2060   1.357       .  A
N2053      N2773   1.307       .  A
N2053      N2054   1.316       .  A
N2053     Mn2071   2.171       .  S
N2054      C2420   1.353       .  A
N2055      N2771   1.307       .  A
N2055      N2056   1.312       .  A
N2055     Mn2059   2.141       .  S
N2057      N2769   1.309       .  A
N2057      N2776   1.312       .  A
N2057     Mn2071   2.167       .  S
N2058      C2060   1.351       .  A
N2058      N2775   1.312       .  A
Mn2059    Cl2790   2.473   1_545  S
C2060      C2096   1.467       .  S
C2061      N2413   1.353       .  A
C2061      C2129   1.445       .  S
N2062      N2063   1.310   1_556  A
N2062      N2068   1.315       .  A
N2062     Mn2070   2.173       .  S
N2064      N2065   1.308       .  A
N2064      N2066   1.304       .  A
N2064     Mn2071   2.140       .  S
N2065      C2074   1.348       .  A
N2066      N2067   1.310       .  A
N2066     Mn2070   2.109       .  S
N2067      C2074   1.341       .  A
N2068      N2069   1.319       .  A
N2068     Mn2071   2.179       .  S
Mn2070    Cl2072   2.477       .  S
Mn2071    Cl2072   2.524       .  S
Cl2072    Mn2777   2.473       .  S
C2073      C2109   1.453       .  S
C2074      C2079   1.433       .  S
C2075      C2076   1.430       .  A
C2075      C2080   1.382       .  A
C2075     Br2082   1.955       .  S
C2076      C2077   1.417       .  A
C2077      C2078   1.395       .  A
C2077     Br2084   1.938       .  S
C2078      C2079   1.406       .  A
C2078     Br2083   1.936       .  S
C2079      C2080   1.399       .  A
C2080     Br2081   1.947       .  S
C2085      C2086   1.417       .  A
C2085      C2090   1.400       .  A
C2085     Br2092   1.934       .  S
C2086      C2087   1.439       .  A
C2087      C2088   1.406       .  A
C2088      C2089   1.397       .  A
C2088     Br2093   1.919       .  S
C2089      C2090   1.404       .  A
C2090     Br2091   1.923       .  S
C2095      C2096   1.406   1_545  A
C2095      C2100   1.399       .  A
C2095     Br2102   1.943       .  S
C2096      C2097   1.406       .  A
C2097      C2098   1.406       .  A
C2097     Br2822   1.929       .  S
C2098      C2099   1.418   1_565  A
C2098     Br2103   1.926       .  S
C2099      C2100   1.438       .  A
C2100     Br2101   1.956       .  S
Br2104     C2815   1.929       .  S
C2105      C2106   1.428       .  A
C2105      C2110   1.401       .  A
C2105     Br2112   1.932       .  S
C2106      C2107   1.437       .  A
C2107      C2108   1.400       .  A
C2107     Br2114   1.940       .  S
C2108      C2109   1.389       .  A
C2109      C2110   1.394       .  A
C2110     Br2111   1.921       .  S
C2115      C2116   1.418       .  A
C2115      C2120   1.416       .  A
C2115     Br2122   1.927       .  S
C2116      C2117   1.430       .  A
C2117      C2118   1.400       .  A
C2117     Br2124   1.935       .  S
C2118      C2119   1.392   1_545  A
C2118     Br2123   1.928   1_545  S
C2119      C2120   1.412   1_565  A
C2120     Br2121   1.924       .  S
C2125      C2126   1.408       .  A
C2125      C2130   1.398       .  A
C2125     Br2132   1.934       .  S
C2126      C2127   1.419       .  A
C2127      C2128   1.395       .  A
C2127     Br2134   1.935       .  S
C2128      C2129   1.397       .  A
C2129      C2130   1.408       .  A
C2130     Br2849   1.925       .  S
Br2131     C2848   1.925       .  S
C2135      C2136   1.414       .  A
C2135      C2140   1.393       .  A
C2135     Br2142   1.938       .  S
C2136      C2137   1.421       .  A
C2137      C2138   1.420       .  A
C2138      C2139   1.407       .  A
C2138     Br2143   1.924       .  S
C2139      C2140   1.423       .  A
C2140     Br2141   1.946       .  S
C2145      C2146   1.413       .  A
C2145      C2150   1.397       .  A
C2145     Br2870   1.928   1_545  S
C2146      C2147   1.397       .  A
C2147      C2148   1.395       .  A
C2148      C2149   1.430       .  A
C2148     Br2153   1.941       .  S
C2149      C2150   1.404       .  A
C2150     Br2151   1.930       .  S
Br2152     C2863   1.928       .  S
C2155      C2156   1.561       .  S
C2155      C2161   1.546       .  S
C2155      C2159   1.522       .  S
C2155      C2508   1.508       .  S
C2156      H2163   1.082       .  S
C2156      C2157   1.372       .  D
C2157      C2158   1.601       .  S
C2157      C2202   1.584       .  S
C2158      C2162   1.578       .  S
C2158      C2160   1.629       .  S
C2158      H2164   1.108       .  S
C2159      H2165   1.082       .  S
C2159      C2160   1.334       .  D
C2160      C2167   1.598       .  S
C2161      H2166   1.086       .  S
C2161      C2162   1.346       .  D
C2162      N2359   1.474       .  S
C2167      C2169   1.491       .  S
C2167      C2171   1.526       .  S
C2167      C2170   1.610       .  S
C2168      C2195   1.604       .  S
C2168      C2172   1.520       .  S
C2168      C2174   1.546       .  S
C2168      C2173   1.594       .  S
C2169      C2177   1.361       .  A
C2169      C2172   1.389       .  A
C2170      C2173   1.436       .  A
C2171      C2185   1.383       .  A
C2171      C2174   1.406       .  A
C2172      C2175   1.371       .  A
C2174      C2182   1.387       .  A
C2175      N2176   1.340       .  A
C2175      H2188   1.067       .  S
N2176      C2321   1.413       .  S
N2176      C2177   1.324       .  A
C2177      H2178   1.072       .  S
C2179      N2180   1.376       .  A
C2179      H2189   1.082       .  S
N2180      C2181   1.374       .  A
N2180      N2262   1.447       .  S
C2181      H2187   1.080       .  S
C2182      N2183   1.360       .  A
C2182      H2184   1.082       .  S
N2183      C2239   1.443       .  S
N2183      C2185   1.352       .  A
C2185      H2186   1.083       .  S
C2190      C2191   1.547       .  S
C2190      C2196   1.542       .  S
C2190      C2194   1.574       .  S
C2190      C2498   1.538       .  S
C2191      H2198   1.085       .  S
C2191      C2192   1.354       .  D
C2192      C2193   1.607       .  S
C2192      C2296   1.596       .  S
C2193      C2197   1.563       .  S
C2193      C2195   1.599       .  S
C2193      H2199   1.105       .  S
C2194      H2200   1.083       .  S
C2194      C2195   1.386       .  D
C2196      H2201   1.088       .  S
C2196      C2197   1.330       .  D
C2197      N2382   1.458       .  S
C2202      C2204   1.490       .  S
C2202      C2206   1.566       .  S
C2202      C2205   1.656       .  S
C2203      C2286   1.548       .  S
C2203      C2207   1.515       .  S
C2203      C2209   1.554       .  S
C2203      C2208   1.547       .  S
C2204      C2212   1.361       .  A
C2204      C2207   1.360       .  A
C2205      C2216   1.442       .  A
C2205      C2208   1.426       .  A
C2206      C2220   1.401       .  A
C2206      C2209   1.392       .  A
C2207      C2210   1.352       .  A
C2209      C2217   1.394       .  A
C2210      N2211   1.343       .  A
C2210      H2223   1.077       .  S
N2211      C2242   1.410       .  S
N2211      C2212   1.344       .  A
C2212      H2213   1.056       .  S
C2214      N2215   1.366       .  A
C2214      H2224   1.082       .  S
N2215      N2309   1.454       .  S
C2217      N2218   1.360       .  A
C2217      H2219   1.080       .  S
N2218      C2230   1.486       .  S
N2218      C2220   1.363       .  A
C2220      H2221   1.066       .  S
C2225      C2226   1.531       .  S
C2225      C2231   1.541       .  S
C2225      C2229   1.559       .  S
C2225      C2485   1.513       .  S
C2226      H2233   1.086       .  S
C2226      C2227   1.347       .  D
C2227      C2228   1.621       .  S
C2227      C2250   1.581       .  S
C2228      C2232   1.602       .  S
C2228      C2230   1.574       .  S
C2228      H2234   1.110       .  S
C2229      H2235   1.084       .  S
C2229      C2230   1.369       .  D
C2231      H2236   1.083       .  S
C2231      C2232   1.343       .  D
C2232      C2343   1.567       .  S
C2237      C2238   1.564       .  S
C2237      C2243   1.562       .  S
C2237      C2241   1.532       .  S
C2237      C2475   1.536       .  S
C2238      H2245   1.085       .  S
C2238      C2239   1.372       .  D
C2239      C2240   1.518       .  S
C2240      C2244   1.551       .  S
C2240      C2242   1.504       .  S
C2240      H2246   1.108       .  S
C2241      H2247   1.088       .  S
C2241      C2242   1.320       .  D
C2243      H2248   1.078       .  S
C2243      C2244   1.374       .  D
C2244      C2367   1.516       .  S
C2249      C2333   1.566       .  S
C2249      C2251   1.524       .  S
C2249      C2253   1.502       .  S
C2249      C2252   1.587       .  S
C2250      C2254   1.520       .  S
C2250      C2256   1.503       .  S
C2250      C2255   1.615       .  S
C2251      C2259   1.379       .  A
C2251      C2254   1.399       .  A
C2252      C2263   1.400       .  A
C2252      C2255   1.433       .  A
C2253      C2267   1.364       .  A
C2253      C2256   1.390       .  A
C2254      C2257   1.381       .  A
C2255      C2261   1.417       .  A
C2256      C2264   1.373       .  A
C2257      N2258   1.346       .  A
C2257      H2270   1.080       .  S
N2258      C2277   1.433       .  S
N2258      C2259   1.349       .  A
C2259      H2260   1.080       .  S
C2261      N2262   1.382       .  A
C2261      H2271   1.081       .  S
N2262      C2263   1.370       .  A
C2263      H2269   1.081       .  S
C2264      N2265   1.327       .  A
C2264      H2266   1.078       .  S
N2265      C2289   1.407       .  S
N2265      C2267   1.334       .  A
C2267      H2268   1.068       .  S
C2272      C2273   1.520       .  S
C2272      C2278   1.553       .  S
C2272      C2276   1.556       .  S
C2272      C2465   1.519       .  S
C2273      H2280   1.071       .  S
C2273      C2274   1.337       .  D
C2274      C2275   1.554       .  S
C2274      C2297   1.514       .  S
C2275      C2279   1.532       .  S
C2275      C2277   1.529       .  S
C2275      H2281   1.111       .  S
C2276      H2282   1.084       .  S
C2276      C2277   1.369       .  D
C2278      H2283   1.085       .  S
C2278      C2279   1.362       .  D
C2279      N2352   1.443       .  S
C2284      C2285   1.574       .  S
C2284      C2290   1.564       .  S
C2284      C2288   1.533       .  S
C2284      C2458   1.530       .  S
C2285      H2292   1.078       .  S
C2285      C2286   1.375       .  D
C2286      C2287   1.568       .  S
C2287      C2291   1.534       .  S
C2287      C2289   1.500       .  S
C2287      H2293   1.111       .  S
C2288      H2294   1.088       .  S
C2288      C2289   1.333       .  D
C2290      H2295   1.086       .  S
C2290      C2291   1.358       .  D
C2291      N2375   1.458       .  S
C2296      C2298   1.530       .  S
C2296      C2300   1.561       .  S
C2296      C2299   1.659       .  S
C2297      C2301   1.521       .  S
C2297      C2303   1.506       .  S
C2297      C2302   1.544       .  S
C2298      C2306   1.387       .  A
C2298      C2301   1.392       .  A
C2299      C2310   1.450       .  A
C2299      C2302   1.423       .  A
C2300      C2314   1.397       .  A
C2300      C2303   1.365       .  A
C2301      C2304   1.371       .  A
C2302      C2308   1.389       .  A
C2303      C2311   1.370       .  A
C2304      N2305   1.340       .  A
C2304      H2317   1.077       .  S
N2305      C2324   1.435       .  S
N2305      C2306   1.356       .  A
C2306      H2307   1.079       .  S
C2308      N2309   1.350       .  A
C2308      H2318   1.073       .  S
N2309      C2310   1.399       .  A
C2310      H2316   1.081       .  S
C2311      N2312   1.349       .  A
C2311      H2313   1.074       .  S
N2312      C2336   1.461       .  S
N2312      C2314   1.358       .  A
C2314      H2315   1.055       .  S
C2319      C2320   1.543       .  S
C2319      C2325   1.559       .  S
C2319      C2323   1.566       .  S
C2319      C2448   1.526       .  S
C2320      H2327   1.080       .  S
C2320      C2321   1.348       .  D
C2321      C2322   1.509       .  S
C2322      C2326   1.562       .  S
C2322      C2324   1.514       .  S
C2322      H2328   1.111       .  S
C2323      H2329   1.080       .  S
C2323      C2324   1.347       .  D
C2325      H2330   1.084   1_554  S
C2325      C2326   1.363       .  D
C2326      C2344   1.532       .  S
C2331      C2332   1.545       .  S
C2331      C2337   1.521       .  S
C2331      C2335   1.541       .  S
C2331      C2435   1.492       .  S
C2332      H2339   1.083       .  S
C2332      C2333   1.364       .  D
C2333      C2334   1.603       .  S
C2334      C2338   1.611       .  S
C2334      C2336   1.557       .  S
C2334      H2340   1.110       .  S
C2335      H2341   1.087       .  S
C2335      C2336   1.352       .  D
C2337      H2342   1.087       .  S
C2337      C2338   1.325       .  D
C2338      C2366   1.560       .  S
C2343      C2345   1.530       .  S
C2343      C2347   1.539       .  S
C2343      C2346   1.625       .  S
C2344      C2348   1.517       .  S
C2344      C2350   1.529       .  S
C2344      C2349   1.570       .  S
C2345      C2353   1.376       .  A
C2345      C2348   1.368       .  A
C2346      C2716   1.425   1_554  A
C2346      C2349   1.431       .  A
C2347      C2361   1.386       .  A
C2347      C2350   1.368       .  A
C2348      C2351   1.374       .  A
C2349      C2714   1.398   1_554  A
C2350      C2358   1.380       .  A
C2351      N2352   1.348       .  A
C2351      H2364   1.077       .  S
N2352      C2353   1.362       .  A
C2353      H2354   1.064       .  S
C2355      C2708   1.398       .  A
C2355      N2356   1.369       .  A
C2355      H2365   1.082       .  S
N2356      C2357   1.384       .  A
N2356      N2379   1.447       .  S
C2357      C2705   1.425       .  A
C2357      H2363   1.081       .  S
C2358      N2359   1.357       .  A
C2358      H2360   1.078       .  S
N2359      C2361   1.368       .  A
C2361      H2362   1.075       .  S
C2366      C2368   1.527       .  S
C2366      C2370   1.529       .  S
C2366      C2369   1.632       .  S
C2367      C2371   1.532       .  S
C2367      C2373   1.529       .  S
C2367      C2372   1.553       .  S
C2368      C2376   1.381       .  A
C2368      C2371   1.376       .  A
C2369      C2380   1.431       .  A
C2369      C2372   1.424       .  A
C2370      C2384   1.382       .  A
C2370      C2373   1.362       .  A
C2371      C2374   1.385       .  A
C2372      C2378   1.391       .  A
C2373      C2381   1.379       .  A
C2374      N2375   1.356       .  A
C2374      H2387   1.078       .  S
N2375      C2376   1.356       .  A
C2376      H2377   1.073       .  S
C2378      N2379   1.362       .  A
C2378      H2388   1.082       .  S
N2379      C2380   1.389       .  A
C2380      H2386   1.081       .  S
C2381      N2382   1.351       .  A
C2381      H2383   1.067       .  S
N2382      C2384   1.363       .  A
C2384      H2385   1.077       .  S
N2389      N2390   1.321   1_455  A
N2389     Mn2418   2.220   1_455  S
N2391      N2392   1.321       .  A
N2391     Mn2407   2.147       .  S
N2393      N2394   1.299       .  A
N2393     Mn2418   2.140   1_455  S
N2395      N2396   1.307   1_565  A
N2395     Mn2407   2.117       .  S
C2397      C2505   1.458       .  S
C2398      C2478   1.463       .  S
N2399      N2400   1.330       .  A
N2399     Mn2429   2.227       .  S
N2401      N2402   1.316       .  A
N2401     Mn2407   2.165       .  S
N2402      C2768   1.347       .  A
N2403      N2404   1.310       .  A
N2403     Mn2429   2.153       .  S
N2405      N2406   1.308       .  A
N2405     Mn2407   2.152       .  S
N2406      C2408   1.338       .  A
C2408      C2495   1.489       .  S
C2409      N2761   1.347       .  A
C2409      C2445   1.482       .  S
N2410      N2411   1.318       .  A
N2410     Mn2418   2.194       .  S
N2411      C2419   1.357       .  A
N2412      N2413   1.315       .  A
N2412     Mn2430   2.169   1_545  S
N2414      N2415   1.311       .  A
N2414     Mn2418   2.141       .  S
N2415      C2779   1.343       .  A
N2416     Mn2430   2.166       .  S
N2417      C2419   1.351       .  A
C2419      C2455   1.467       .  S
C2420      N2774   1.344       .  A
C2420      C2488   1.445       .  S
N2421      N2422   1.311       .  A
N2421      N2427   1.315       .  A
N2421     Mn2429   2.176       .  S
N2422      C2791   1.351       .  A
N2423      N2424   1.308       .  A
N2423      N2425   1.305       .  A
N2423     Mn2430   2.137       .  S
N2424      C2433   1.347       .  A
N2425      N2426   1.310       .  A
N2425     Mn2429   2.110       .  S
N2426      C2433   1.341       .  A
N2427      N2428   1.319       .  A
N2427     Mn2430   2.177       .  S
N2428      C2791   1.350       .  A
Mn2429    Cl2431   2.478       .  S
Mn2430    Cl2431   2.524       .  S
C2432      N2781   1.350       .  A
C2432      N2787   1.351   1_554  A
C2432      C2468   1.453       .  S
C2433      C2438   1.431       .  S
C2434      C2435   1.430       .  A
C2434      C2439   1.382       .  A
C2434     Br2441   1.955       .  S
C2435      C2436   1.417       .  A
C2436      C2437   1.395       .  A
C2436     Br2443   1.938       .  S
C2437      C2438   1.406       .  A
C2437     Br2442   1.936       .  S
C2438      C2439   1.399       .  A
C2439     Br2440   1.947       .  S
C2444      C2445   1.418       .  A
C2444      C2449   1.400       .  A
C2444     Br2451   1.934       .  S
C2445      C2446   1.439       .  A
C2446      C2447   1.406       .  A
C2446     Br2812   1.941   1_554  S
C2447      C2448   1.396       .  A
C2447     Br2452   1.920   1_554  S
C2448      C2449   1.404       .  A
C2449     Br2450   1.924       .  S
Br2453     C2805   1.941       .  S
C2454      C2455   1.407       .  A
C2454      C2459   1.399       .  A
C2454     Br2461   1.943       .  S
C2455      C2456   1.406       .  A
C2456      C2457   1.405       .  A
C2457      C2458   1.417       .  A
C2457     Br2462   1.926       .  S
C2458      C2459   1.438       .  A
C2459     Br2460   1.956       .  S
C2464      C2465   1.427       .  A
C2464      C2469   1.401       .  A
C2464     Br2471   1.932       .  S
C2465      C2466   1.436       .  A
C2466      C2467   1.400       .  A
C2466     Br2473   1.940       .  S
C2467      C2468   1.390       .  A
C2467     Br2831   1.926       .  S
C2468      C2469   1.395       .  A
C2469     Br2470   1.921       .  S
Br2472     C2826   1.926       .  S
C2474      C2475   1.418       .  A
C2474      C2479   1.416       .  A
C2474     Br2481   1.927       .  S
C2475      C2476   1.430       .  A
C2476      C2477   1.399       .  A
C2476     Br2483   1.935       .  S
C2477      C2478   1.392       .  A
C2477     Br2482   1.928       .  S
C2478      C2479   1.412       .  A
C2479     Br2480   1.924       .  S
C2484      C2485   1.409       .  A
C2484      C2489   1.397       .  A
C2484     Br2491   1.934       .  S
C2485      C2486   1.419       .  A
C2486      C2487   1.395   1_554  A
C2486     Br2493   1.935       .  S
C2487      C2488   1.398       .  A
C2487     Br2851   1.930       .  S
C2488      C2489   1.408   1_556  A
Br2492     C2846   1.930       .  S
C2494      C2495   1.414       .  A
C2494      C2499   1.393       .  A
C2494     Br2501   1.937       .  S
C2495      C2496   1.421       .  A
C2496      C2497   1.420       .  A
C2497      C2498   1.407       .  A
C2497     Br2502   1.924       .  S
C2498      C2499   1.422       .  A
C2499     Br2500   1.945       .  S
C2504      C2505   1.412       .  A
C2504      C2509   1.397       .  A
C2505      C2506   1.397       .  A
C2506      C2507   1.395       .  A
C2506     Br2872   1.931       .  S
C2507      C2508   1.430       .  A
C2507     Br2512   1.941       .  S
C2508      C2509   1.405       .  A
C2509     Br2510   1.930       .  S
Br2513     C2865   1.931       .  S
C2514      C2515   1.561       .  S
C2514      C2520   1.547       .  S
C2514      C2518   1.521       .  S
C2514      C2867   1.508       .  S
C2515      H2522   1.082       .  S
C2515      C2516   1.373       .  D
C2516      C2517   1.601       .  S
C2516      C2561   1.585       .  S
C2517      C2521   1.578       .  S
C2517      C2519   1.629       .  S
C2517      H2523   1.108       .  S
C2518      H2524   1.081       .  S
C2518      C2519   1.334       .  D
C2519      C2526   1.598       .  S
C2520      H2525   1.087       .  S
C2520      C2521   1.346       .  D
C2521      N2718   1.474       .  S
C2526      C2528   1.491       .  S
C2526      C2530   1.526       .  S
C2526      C2529   1.610       .  S
C2527      C2554   1.603       .  S
C2527      C2531   1.520       .  S
C2527      C2533   1.546       .  S
C2527      C2532   1.594       .  S
C2528      C2536   1.360       .  A
C2528      C2531   1.389       .  A
C2529      C2532   1.436       .  A
C2530      C2544   1.383       .  A
C2530      C2533   1.406       .  A
C2531      C2534   1.371       .  A
C2533      C2541   1.387       .  A
C2534      N2535   1.340       .  A
C2534      H2547   1.067       .  S
N2535      C2680   1.413       .  S
N2535      C2536   1.324       .  A
C2536      H2537   1.072       .  S
C2538      N2539   1.376       .  A
C2538      H2548   1.082       .  S
N2539      C2540   1.374       .  A
N2539      N2621   1.447       .  S
C2540      H2546   1.079       .  S
C2541      N2542   1.360       .  A
C2541      H2543   1.082       .  S
N2542      C2598   1.443       .  S
N2542      C2544   1.352       .  A
C2544      H2545   1.083       .  S
C2549      C2550   1.547       .  S
C2549      C2555   1.542       .  S
C2549      C2553   1.574       .  S
C2549      C2857   1.537       .  S
C2550      H2557   1.085       .  S
C2550      C2551   1.353       .  D
C2551      C2552   1.607       .  S
C2551      C2655   1.595       .  S
C2552      C2556   1.563       .  S
C2552      C2554   1.599       .  S
C2552      H2558   1.105       .  S
C2553      H2559   1.083       .  S
C2553      C2554   1.385       .  D
C2555      H2560   1.088       .  S
C2555      C2556   1.330       .  D
C2556      N2741   1.458       .  S
C2561      C2563   1.490       .  S
C2561      C2565   1.566       .  S
C2561      C2564   1.656       .  S
C2562      C2645   1.549       .  S
C2562      C2566   1.514       .  S
C2562      C2568   1.553       .  S
C2562      C2567   1.547       .  S
C2563      C2571   1.362       .  A
C2563      C2566   1.359       .  A
C2564      C2575   1.442       .  A
C2564      C2567   1.426       .  A
C2565      C2579   1.401       .  A
C2565      C2568   1.392       .  A
C2566      C2569   1.352       .  A
C2568      C2576   1.393       .  A
C2569      N2570   1.343       .  A
C2569      H2582   1.076       .  S
N2570      C2601   1.410       .  S
N2570      C2571   1.344       .  A
C2571      H2572   1.056       .  S
C2573      N2574   1.366       .  A
C2573      H2583   1.082       .  S
N2574      N2668   1.454       .  S
C2576      N2577   1.360       .  A
C2576      H2578   1.080       .  S
N2577      C2589   1.485       .  S
N2577      C2579   1.363       .  A
C2579      H2580   1.066       .  S
C2584      C2585   1.531       .  S
C2584      C2590   1.541       .  S
C2584      C2588   1.559       .  S
C2584      C2844   1.513       .  S
C2585      H2592   1.086       .  S
C2585      C2586   1.347       .  D
C2586      C2587   1.621       .  S
C2586      C2609   1.582       .  S
C2587      C2591   1.602       .  S
C2587      C2589   1.574       .  S
C2587      H2593   1.110       .  S
C2588      H2594   1.084       .  S
C2588      C2589   1.369       .  D
C2590      H2595   1.083       .  S
C2590      C2591   1.342       .  D
C2591      C2702   1.567       .  S
C2596      C2597   1.564       .  S
C2596      C2602   1.562       .  S
C2596      C2600   1.531       .  S
C2596      C2834   1.536       .  S
C2597      H2604   1.085       .  S
C2597      C2598   1.372       .  D
C2598      C2599   1.517       .  S
C2599      C2603   1.552       .  S
C2599      C2601   1.504       .  S
C2599      H2605   1.108       .  S
C2600      H2606   1.088       .  S
C2600      C2601   1.320       .  D
C2602      H2607   1.078       .  S
C2602      C2603   1.374       .  D
C2603      C2726   1.517       .  S
C2608      C2692   1.567       .  S
C2608      C2610   1.525       .  S
C2608      C2612   1.502       .  S
C2608      C2611   1.587       .  S
C2609      C2613   1.520       .  S
C2609      C2615   1.503       .  S
C2609      C2614   1.615       .  S
C2610      C2618   1.379       .  A
C2610      C2613   1.400       .  A
C2611      C2622   1.400       .  A
C2611      C2614   1.433       .  A
C2612      C2626   1.364       .  A
C2612      C2615   1.390       .  A
C2613      C2616   1.381       .  A
C2614      C2620   1.417       .  A
C2615      C2623   1.373       .  A
C2616      N2617   1.346       .  A
C2616      H2629   1.080       .  S
N2617      C2636   1.432       .  S
N2617      C2618   1.349       .  A
C2618      H2619   1.080       .  S
C2620      N2621   1.382       .  A
C2620      H2630   1.081       .  S
N2621      C2622   1.370       .  A
C2622      H2628   1.081       .  S
C2623      N2624   1.327       .  A
C2623      H2625   1.078       .  S
N2624      C2648   1.406       .  S
N2624      C2626   1.333       .  A
C2626      H2627   1.068       .  S
C2631      C2632   1.520       .  S
C2631      C2637   1.554       .  S
C2631      C2635   1.556       .  S
C2631      C2824   1.519       .  S
C2632      H2639   1.071       .  S
C2632      C2633   1.336       .  D
C2633      C2634   1.554       .  S
C2633      C2656   1.514       .  S
C2634      C2638   1.533       .  S
C2634      C2636   1.529       .  S
C2634      H2640   1.111       .  S
C2635      H2641   1.084       .  S
C2635      C2636   1.369       .  D
C2637      H2642   1.085       .  S
C2637      C2638   1.362       .  D
C2638      N2711   1.443       .  S
C2643      C2644   1.574       .  S
C2643      C2649   1.564       .  S
C2643      C2647   1.533       .  S
C2643      C2817   1.531       .  S
C2644      H2651   1.078       .  S
C2644      C2645   1.375       .  D
C2645      C2646   1.569       .  S
C2646      C2650   1.534       .  S
C2646      C2648   1.500       .  S
C2646      H2652   1.111       .  S
C2647      H2653   1.088       .  S
C2647      C2648   1.333       .  D
C2649      H2654   1.086       .  S
C2649      C2650   1.358       .  D
C2650      N2734   1.458       .  S
C2655      C2657   1.530       .  S
C2655      C2659   1.561       .  S
C2655      C2658   1.659       .  S
C2656      C2660   1.521       .  S
C2656      C2662   1.506       .  S
C2656      C2661   1.544       .  S
C2657      C2665   1.386       .  A
C2657      C2660   1.391       .  A
C2658      C2669   1.450       .  A
C2658      C2661   1.423       .  A
C2659      C2673   1.397       .  A
C2659      C2662   1.365       .  A
C2660      C2663   1.370       .  A
C2661      C2667   1.389       .  A
C2662      C2670   1.369       .  A
C2663      N2664   1.339       .  A
C2663      H2676   1.077       .  S
N2664      C2683   1.434       .  S
N2664      C2665   1.355       .  A
C2665      H2666   1.079       .  S
C2667      N2668   1.350       .  A
C2667      H2677   1.074       .  S
N2668      C2669   1.398       .  A
C2669      H2675   1.081       .  S
C2670      N2671   1.349       .  A
C2670      H2672   1.074       .  S
N2671      C2695   1.461       .  S
N2671      C2673   1.358       .  A
C2673      H2674   1.056       .  S
C2678      C2679   1.543       .  S
C2678      C2684   1.559       .  S
C2678      C2682   1.566       .  S
C2678      C2807   1.526       .  S
C2679      H2686   1.080       .  S
C2679      C2680   1.347       .  D
C2680      C2681   1.509       .  S
C2681      C2685   1.562       .  S
C2681      C2683   1.514       .  S
C2681      H2687   1.111       .  S
C2682      H2688   1.080       .  S
C2682      C2683   1.346       .  D
C2684      H2689   1.084       .  S
C2684      C2685   1.363       .  D
C2685      C2703   1.532       .  S
C2690      C2691   1.546       .  S
C2690      C2696   1.522       .  S
C2690      C2694   1.540       .  S
C2690      C2794   1.493       .  S
C2691      H2698   1.083       .  S
C2691      C2692   1.365       .  D
C2692      C2693   1.603       .  S
C2693      C2697   1.611       .  S
C2693      C2695   1.557       .  S
C2693      H2699   1.110       .  S
C2694      H2700   1.087       .  S
C2694      C2695   1.351       .  D
C2696      H2701   1.087       .  S
C2696      C2697   1.325       .  D
C2697      C2725   1.561       .  S
C2702      C2704   1.530       .  S
C2702      C2706   1.539       .  S
C2702      C2705   1.626       .  S
C2703      C2707   1.517       .  S
C2703      C2709   1.530       .  S
C2703      C2708   1.569       .  S
C2704      C2712   1.376       .  A
C2704      C2707   1.368       .  A
C2705      C2708   1.431       .  A
C2706      C2720   1.386       .  A
C2706      C2709   1.368       .  A
C2707      C2710   1.374       .  A
C2709      C2717   1.380       .  A
C2710      N2711   1.348       .  A
C2710      H2723   1.077       .  S
N2711      C2712   1.362       .  A
C2712      H2713   1.064       .  S
C2714      N2715   1.369       .  A
C2714      H2724   1.082       .  S
N2715      C2716   1.384       .  A
N2715      N2738   1.447       .  S
C2716      H2722   1.081       .  S
C2717      N2718   1.357       .  A
C2717      H2719   1.078       .  S
N2718      C2720   1.368       .  A
C2720      H2721   1.075       .  S
C2725      C2727   1.528       .  S
C2725      C2729   1.529       .  S
C2725      C2728   1.632       .  S
C2726      C2730   1.532       .  S
C2726      C2732   1.529       .  S
C2726      C2731   1.553       .  S
C2727      C2735   1.381       .  A
C2727      C2730   1.376       .  A
C2728      C2739   1.431       .  A
C2728      C2731   1.425       .  A
C2729      C2743   1.381       .  A
C2729      C2732   1.362       .  A
C2730      C2733   1.385       .  A
C2731      C2737   1.391       .  A
C2732      C2740   1.379       .  A
C2733      N2734   1.356       .  A
C2733      H2746   1.078       .  S
N2734      C2735   1.356       .  A
C2735      H2736   1.073       .  S
C2737      N2738   1.362       .  A
C2737      H2747   1.082       .  S
N2738      C2739   1.389       .  A
C2739      H2745   1.081       .  S
C2740      N2741   1.351       .  A
C2740      H2742   1.067       .  S
N2741      C2743   1.363       .  A
C2743      H2744   1.077       .  S
N2748      N2749   1.321   1_455  A
N2748     Mn2777   2.219   1_455  S
N2750      N2751   1.321       .  A
N2750     Mn2766   2.146       .  S
N2752      N2753   1.299       .  A
N2752     Mn2777   2.139   1_455  S
N2754      N2755   1.307   1_566  A
N2754     Mn2766   2.118       .  S
C2756      C2864   1.458       .  S
C2757      C2837   1.463       .  S
N2758      N2759   1.330       .  A
N2758     Mn2788   2.225       .  S
N2760      N2761   1.316       .  A
N2760     Mn2766   2.166   1_554  S
N2762      N2763   1.309       .  A
N2762     Mn2788   2.152   1_554  S
N2764      N2765   1.308       .  A
N2764     Mn2766   2.151       .  S
N2765      C2767   1.338       .  A
C2767      C2854   1.488       .  S
C2768      C2804   1.481       .  S
N2769      N2770   1.318       .  A
N2769     Mn2777   2.195       .  S
N2770      C2778   1.357       .  A
N2771      N2772   1.315       .  A
N2771     Mn2789   2.171   1_545  S
N2773      N2774   1.312       .  A
N2773     Mn2777   2.141       .  S
N2775     Mn2789   2.167       .  S
N2776      C2778   1.351       .  A
C2778      C2814   1.467       .  S
C2779      C2847   1.445       .  S
N2780      N2781   1.310   1_556  A
N2780      N2786   1.315       .  A
N2780     Mn2788   2.173       .  S
N2782      N2783   1.308       .  A
N2782      N2784   1.304       .  A
N2782     Mn2789   2.140       .  S
N2783      C2792   1.348       .  A
N2784      N2785   1.309       .  A
N2784     Mn2788   2.109       .  S
N2785      C2792   1.341       .  A
N2786      N2787   1.319       .  A
N2786     Mn2789   2.179       .  S
Mn2788    Cl2790   2.477       .  S
Mn2789    Cl2790   2.524       .  S
C2791      C2827   1.453       .  S
C2792      C2797   1.433       .  S
C2793      C2794   1.430       .  A
C2793      C2798   1.382       .  A
C2793     Br2800   1.955       .  S
C2794      C2795   1.417       .  A
C2795      C2796   1.395       .  A
C2795     Br2802   1.938       .  S
C2796      C2797   1.406       .  A
C2796     Br2801   1.936       .  S
C2797      C2798   1.399       .  A
C2798     Br2799   1.947       .  S
C2803      C2804   1.417       .  A
C2803      C2808   1.400       .  A
C2803     Br2810   1.934       .  S
C2804      C2805   1.439       .  A
C2805      C2806   1.406       .  A
C2806      C2807   1.396       .  A
C2806     Br2811   1.919       .  S
C2807      C2808   1.404       .  A
C2808     Br2809   1.923       .  S
C2813      C2814   1.406       .  A
C2813      C2818   1.399       .  A
C2813     Br2820   1.943       .  S
C2814      C2815   1.406       .  A
C2815      C2816   1.406       .  A
C2816      C2817   1.418       .  A
C2816     Br2821   1.926       .  S
C2817      C2818   1.438       .  A
C2818     Br2819   1.956       .  S
C2823      C2824   1.428       .  A
C2823      C2828   1.401       .  A
C2823     Br2830   1.932       .  S
C2824      C2825   1.437       .  A
C2825      C2826   1.400       .  A
C2825     Br2832   1.940       .  S
C2826      C2827   1.389       .  A
C2827      C2828   1.394       .  A
C2828     Br2829   1.921       .  S
C2833      C2834   1.418       .  A
C2833      C2838   1.416       .  A
C2833     Br2840   1.927       .  S
C2834      C2835   1.430       .  A
C2835      C2836   1.400       .  A
C2835     Br2842   1.935       .  S
C2836      C2837   1.392       .  A
C2836     Br2841   1.928       .  S
C2837      C2838   1.412       .  A
C2838     Br2839   1.924       .  S
C2843      C2844   1.408       .  A
C2843      C2848   1.398       .  A
C2843     Br2850   1.933       .  S
C2844      C2845   1.419       .  A
C2845      C2846   1.395       .  A
C2845     Br2852   1.935       .  S
C2846      C2847   1.398       .  A
C2847      C2848   1.408       .  A
C2853      C2854   1.414       .  A
C2853      C2858   1.393       .  A
C2853     Br2860   1.938       .  S
C2854      C2855   1.421       .  A
C2855      C2856   1.420       .  A
C2856      C2857   1.407       .  A
C2856     Br2861   1.924       .  S
C2857      C2858   1.423       .  A
C2858     Br2859   1.946       .  S
C2863      C2864   1.413       .  A
C2863      C2868   1.397       .  A
C2864      C2865   1.397       .  A
C2865      C2866   1.395       .  A
C2866      C2867   1.430       .  A
C2866     Br2871   1.941       .  S
C2867      C2868   1.404       .  A
C2868     Br2869   1.930       .  S
