geometry optimzed in LAMMPS
_audit_creation_date              2020-11-30 
_audit_creation_method            'lammps2cif' 
_symmetry_space_group_name_H-M    'P1' 
_symmetry_Int_Tables_number       1 
_symmetry_cell_setting            triclinic 
loop_ 
_symmetry_equiv_pos_as_xyz 
  x,y,z 
_cell_length_a                    42.08632156612134 
_cell_length_b                    42.186027446711634 
_cell_length_c                    41.33374930874113 
_cell_angle_alpha                 89.75597095647163 
_cell_angle_beta                  89.60200414764421 
_cell_angle_gamma                 89.46261146098017 
loop_ 
_atom_site_label 
_atom_site_type_symbol 
_atom_site_fract_x 
_atom_site_fract_y 
_atom_site_fract_z 
_atom_site_charge 
C1          C  0.36822454  0.36777155  0.50999032     0.02940
C2          C  0.37745679  0.33625551  0.50137414    -0.13210
C3          C  0.35416826  0.31559974  0.49007648     0.00440
C4          C  0.32471858  0.32928821  0.98258943    -0.11730
C5          C  0.31298728  0.35393242  0.00171328     0.02930
C6          C  0.33541780  0.37445810  0.01487368    -0.11150
H7          H  0.40198442  0.32842665  0.50236153     0.08530
H8          H  0.30869049  0.31658939  0.96777299     0.06060
H9          H  0.32772407  0.39609452  0.02670024     0.05900
C10         C  0.36910274  0.22534213  0.98036870     0.02940
C11         C  0.37737740  0.25794001  0.48295753    -0.13210
C12         C  0.35439845  0.27997160  0.49341607     0.00440
C13         C  0.32700019  0.26710819  0.00547701    -0.11730
C14         C  0.31436893  0.23948277  0.99317225     0.02930
C15         C  0.33621672  0.21727475  0.98085268    -0.11150
H16         H  0.40150338  0.26555498  0.47855737     0.08530
H17         H  0.31242569  0.28148430  0.02014347     0.06060
H18         H  0.32851261  0.19361891  0.97480318     0.05900
C19         C  0.22699950  0.22095360  0.01163767     0.02940
C20         C  0.25991138  0.21454622  0.00609820    -0.13210
C21         C  0.27873468  0.23843416  0.99237394     0.00440
C22         C  0.26316654  0.26722664  0.98566581    -0.11730
C23         C  0.23889160  0.27725171  0.00643175     0.02930
C24         C  0.22007852  0.25319522  0.01994415    -0.11150
H25         H  0.27067380  0.19221804  0.01303390     0.08530
H26         H  0.27432047  0.28420797  0.97040013     0.06060
H27         H  0.20128515  0.25946754  0.03664055     0.05900
C28         C  0.22321822  0.36519294  0.99989097     0.02940
C29         C  0.25571239  0.37359976  0.99822965    -0.13210
C30         C  0.27854187  0.35274449  0.01080211     0.00440
C31         C  0.26743802  0.32481228  0.02543545    -0.11730
C32         C  0.23851528  0.31165731  0.01573505     0.02930
C33         C  0.21509036  0.33300264  0.00522961    -0.11150
H34         H  0.26277727  0.39653970  0.98891810     0.08530
H35         H  0.28265658  0.31158004  0.04124207     0.06060
H36         H  0.19107923  0.32479931  0.00169251     0.05900
C37         C  0.36589190  0.05350868  0.32106664     0.02940
C38         C  0.33695699  0.03717645  0.32624567    -0.13210
C39         C  0.31669105  0.03142343  0.30001637     0.00440
C40         C  0.32768149  0.04064738  0.26922786    -0.11730
C41         C  0.35169212  0.06303790  0.26511579     0.02930
C42         C  0.37180609  0.06869744  0.29109673    -0.11150
H43         H  0.33093429  0.02825842  0.35009562     0.08530
H44         H  0.31552351  0.03346012  0.24778068     0.06060
H45         H  0.39235104  0.08369550  0.28787452     0.05900
C46         C  0.22928736  0.03504616  0.32386821     0.02940
C47         C  0.26264053  0.03261409  0.32861442    -0.13210
C48         C  0.28247330  0.02119302  0.30337741     0.00440
C49         C  0.26706800  0.00917201  0.27591591    -0.11730
C50         C  0.23745888  0.02227603  0.26741478     0.02930
C51         C  0.21728057  0.03188600  0.29233516    -0.11150
H52         H  0.27280922  0.04052706  0.35113925     0.08530
H53         H  0.28102643  0.99833358  0.25678586     0.06060
H54         H  0.19300186  0.03857561  0.28682804     0.05900
C55         C  0.22500423  0.04321743  0.17907869     0.02940
C56         C  0.21644615  0.03386224  0.21090664    -0.13210
C57         C  0.23703607  0.03987463  0.23626754     0.00440
C58         C  0.26206593  0.06053747  0.23082347    -0.11730
C59         C  0.27476957  0.06485575  0.19970491     0.02930
C60         C  0.25606239  0.05513566  0.17347835    -0.11150
H61         H  0.19412449  0.02239918  0.21616497     0.08530
H62         H  0.27440228  0.06848819  0.25197858     0.06060
H63         H  0.26475238  0.05836727  0.14898210     0.05900
C64         C  0.36325294  0.06001593  0.17938885     0.02940
C65         C  0.37433576  0.06988832  0.20998150    -0.13210
C66         C  0.35275412  0.08029076  0.23350713     0.00440
C67         C  0.32310775  0.09091145  0.22239935    -0.11730
C68         C  0.30909212  0.07417406  0.19678458     0.02930
C69         C  0.32989481  0.05877256  0.17486652    -0.11150
H70         H  0.39910367  0.06786626  0.21643060     0.08530
H71         H  0.30816519  0.10368728  0.23940170     0.06060
H72         H  0.32039559  0.04520466  0.15505364     0.05900
C73         C  0.05781668  0.22526500  0.32171149     0.02940
C74         C  0.05405700  0.25674921  0.33239496    -0.13210
C75         C  0.06534640  0.28146659  0.31301077     0.00440
C76         C  0.08367417  0.27328224  0.28576382    -0.11730
C77         C  0.07631239  0.24503274  0.26931017     0.02930
C78         C  0.06595960  0.21956814  0.28893602    -0.11150
H79         H  0.04198109  0.26183611  0.35504382     0.08530
H80         H  0.09571158  0.29231870  0.27329394     0.06060
H81         H  0.06344952  0.19600700  0.27911878     0.05900
C82         C  0.03870666  0.36762393  0.31901475     0.02940
C83         C  0.05108152  0.33803927  0.32915570    -0.13210
C84         C  0.04680802  0.31144594  0.30982431     0.00440
C85         C  0.02850397  0.31439290  0.28191969    -0.11730
C86         C  0.02123932  0.34410244  0.26801115     0.02930
C87         C  0.02551788  0.37099479  0.28767473    -0.11150
H88         H  0.06414182  0.33593984  0.35157217     0.08530
H89         H  0.02461462  0.29270189  0.26901666     0.06060
H90         H  0.01885993  0.39432404  0.27891196     0.05900
C91         C  0.05213177  0.22345016  0.18183675     0.02940
C92         C  0.06367282  0.21971733  0.21394702    -0.13210
C93         C  0.07027972  0.24650385  0.23316397     0.00440
C94         C  0.06467739  0.27643903  0.21897493    -0.11730
C95         C  0.04708545  0.28004803  0.19073943     0.02930
C96         C  0.04295376  0.25393773  0.17089643    -0.11150
H97         H  0.06760619  0.19611764  0.22352715     0.08530
H98         H  0.06902469  0.29804555  0.23185724     0.06060
H99         H  0.03184829  0.25725967  0.14756513     0.05900
C100        C  0.03546125  0.36610260  0.17982614     0.02940
C101        C  0.03907296  0.33474548  0.16870140    -0.13210
C102        C  0.02822168  0.30981693  0.18791627     0.00440
C103        C  0.00954091  0.31741830  0.21508006    -0.11730
C104        C  0.01609547  0.34567476  0.23179118     0.02930
C105        C  0.02704707  0.37126765  0.21269111    -0.11150
H106        H  0.05077255  0.32976828  0.14583396     0.08530
H107        H  0.99781026  0.29806212  0.22735591     0.06060
H108        H  0.02971087  0.39461647  0.22300157     0.05900
O109        O  0.45537147  0.49473509  0.00159965    -0.86680
O110        O  0.13456703  0.49094795  0.00062911    -0.86840
O111        O  0.04398880  0.45614523  0.44506472    -0.88510
O112        O  0.04491465  0.45359020  0.05092394    -0.87270
O113        O  0.04388042  0.49109359  0.09118039    -0.86860
O114        O  0.04568981  0.49501861  0.40595582    -0.88230
O115        O  0.09575767  0.45322509  0.00007476    -0.86710
O116        O  0.49357272  0.45579093  0.99834674    -0.86290
Zr117      Zr  0.04512296  0.48105426  0.99878110     2.84310
O118        O  0.07582217  0.01238687  0.03373743    -1.08270
O119        O  0.01361420  0.01432068  0.46554004    -1.09000
C120        C  0.46445551  0.46530042  0.00079964     1.06430
C121        C  0.12501951  0.46193448  0.00034088     1.06370
C122        C  0.04444133  0.46586555  0.41532347     1.09360
C123        C  0.04414339  0.46224253  0.08087150     1.07140
H124        H  0.09170402  0.00024428  0.45234476     0.32690
O125        O  0.07830060  0.01325401  0.46604693    -1.29220
H126        H  0.99852038  0.00101833  0.04635752     0.32370
O127        O  0.01197726  0.01419113  0.03303859    -1.30900
O128        O  0.13551366  0.09462184  0.00539658    -0.86670
O129        O  0.45696675  0.09959354  0.99787170    -0.88170
O130        O  0.09981232  0.04589578  0.40874042    -0.86750
O131        O  0.09593198  0.04356622  0.09298759    -0.86800
O132        O  0.49165917  0.04367734  0.09176602    -0.86510
O133        O  0.49456881  0.05020211  0.40840951    -0.86310
O134        O  0.04816456  0.13556698  0.44863774    -0.86680
O135        O  0.04527938  0.13493584  0.05513814    -0.86150
O136        O  0.04787946  0.09825279  0.40824726    -0.87210
O137        O  0.04402856  0.09575806  0.09400612    -0.86370
O138        O  0.13687911  0.04644999  0.44921080    -0.86770
O139        O  0.45565341  0.04622935  0.44722923    -0.86490
O140        O  0.45498483  0.04562745  0.05172168    -0.86140
O141        O  0.13444866  0.04204758  0.05336914    -0.86550
O142        O  0.09836589  0.13411547  0.00100943    -0.86840
O143        O  0.49587072  0.13736216  0.99919678    -0.88180
Zr144      Zr  0.10842399  0.04404277  0.00141103     2.83100
Zr145      Zr  0.48179490  0.04652339  0.99958506     2.83500
Zr146      Zr  0.04677140  0.04672654  0.43418375     2.84090
Zr147      Zr  0.04383080  0.04487051  0.06653831     2.83360
Zr148      Zr  0.04608564  0.10989203  0.00158648     2.84220
O149        O  0.01271660  0.07848096  0.03394245    -1.08750
O150        O  0.07848555  0.07761655  0.46798294    -1.08250
C151        C  0.12729291  0.12412305  0.00383633     1.06400
C152        C  0.46664343  0.12869948  0.99735709     1.09020
C153        C  0.12877063  0.04591891  0.41921702     1.06580
C154        C  0.12521423  0.04269243  0.08313528     1.06940
C155        C  0.46261256  0.04401394  0.08177841     1.06520
C156        C  0.46513650  0.04901362  0.41760264     1.06070
C157        C  0.04839886  0.12701228  0.41856982     1.06500
C158        C  0.04480263  0.12503551  0.08484771     1.06010
H159        H  0.00170936  0.09197381  0.45452694     0.32690
O160        O  0.01462087  0.07818481  0.46783844    -1.29850
H161        H  0.09008490  0.08919241  0.04816760     0.32710
O162        O  0.07681503  0.07655989  0.03440330    -1.31240
C163        C  0.01375557  0.43334685  0.12319904    -0.02040
C164        C  0.04227220  0.43725564  0.10571875     0.07650
C165        C  0.06888189  0.41803006  0.11278932    -0.02150
C166        C  0.06777889  0.39679539  0.13914995    -0.02150
C167        C  0.03912240  0.39268387  0.15662317     0.07780
C168        C  0.01199682  0.41079683  0.14821006    -0.02350
Br169      Br  0.47154622  0.40352348  0.16888471    -0.00900
Br170      Br  0.47599114  0.45709258  0.11049124    -0.00970
Br171      Br  0.10577239  0.37416167  0.15186863    -0.00930
Br172      Br  0.10604821  0.41936802  0.08521271    -0.00910
C173        C  0.01958085  0.16892671  0.11686932    -0.02040
C174        C  0.04592697  0.14908444  0.11072029     0.07650
C175        C  0.07327990  0.15170252  0.12989281    -0.02150
C176        C  0.07552710  0.17592052  0.15306040    -0.02150
C177        C  0.04903630  0.19590191  0.15952475     0.07780
C178        C  0.02047694  0.19109748  0.14224252    -0.02350
Br179      Br  0.98175327  0.21322800  0.15425756    -0.00900
Br180      Br  0.98206393  0.16533338  0.09073398    -0.00970
Br181      Br  0.11602643  0.18272968  0.17360425    -0.00930
Br182      Br  0.10810213  0.12240291  0.12396529    -0.00910
C183        C  0.01389203  0.42670704  0.38331199    -0.02040
C184        C  0.04292015  0.44169285  0.38975611     0.07650
C185        C  0.07016560  0.43406458  0.37123425    -0.02150
C186        C  0.06887426  0.40994027  0.34783329    -0.02150
C187        C  0.03985987  0.39479289  0.34150381     0.07780
C188        C  0.01220916  0.40380581  0.35874559    -0.02350
Br189      Br  0.97214188  0.38410006  0.34931404    -0.00900
Br190      Br  0.97635069  0.43783859  0.40801515    -0.00970
Br191      Br  0.10684086  0.39740812  0.32461813    -0.00930
Br192      Br  0.10921990  0.45663950  0.37796437    -0.00910
C193        C  0.02715868  0.18103224  0.34802945    -0.02040
C194        C  0.05500437  0.19911139  0.34537805     0.07650
C195        C  0.08049966  0.19339178  0.36662796    -0.02150
C196        C  0.07771662  0.17069392  0.39138774    -0.02150
C197        C  0.05017938  0.15210721  0.39372952     0.07780
C198        C  0.02518451  0.15670793  0.37144389    -0.02350
Br199      Br  0.48814844  0.12980251  0.37278576    -0.00900
Br200      Br  0.49142179  0.19033927  0.32024237    -0.00770
Br201      Br  0.11221583  0.16442404  0.42144574    -0.00930
Br202      Br  0.11975852  0.21623493  0.36120590    -0.00910
C203        C  0.44085577  0.03480375  0.13925652    -0.02040
C204        C  0.43582261  0.04311312  0.10621266     0.07650
C205        C  0.40414052  0.05105085  0.09692425    -0.02150
C206        C  0.38142336  0.05916144  0.12065014    -0.02150
C207        C  0.38631679  0.05028596  0.15331357     0.07780
C208        C  0.41496480  0.03427647  0.16107631    -0.02350
Br209      Br  0.41806405  0.00842541  0.19977385    -0.00900
Br210      Br  0.48227091  0.02475890  0.15685498    -0.00970
Br211      Br  0.34588773  0.08554354  0.10736774    -0.00930
Br212      Br  0.38902819  0.04851960  0.05275291    -0.00910
C213        C  0.18046821  0.01569329  0.14989064    -0.02040
C214        C  0.20115876  0.04186010  0.15253117     0.07650
C215        C  0.19665712  0.06820232  0.13149771    -0.02150
C216        C  0.17341888  0.06714720  0.10728633    -0.02150
C217        C  0.15065471  0.04283303  0.10756880     0.07780
C218        C  0.15360336  0.01780673  0.12994815    -0.02350
Br219      Br  0.12089109  0.98645547  0.13373435    -0.00900
Br220      Br  0.18996254  0.97557211  0.17064857    -0.00970
Br221      Br  0.17255146  0.09987014  0.07445963    -0.00930
Br222      Br  0.21932292  0.10754307  0.13698531    -0.00910
C223        C  0.18407303  0.06604655  0.34900522    -0.02040
C224        C  0.20659405  0.04100005  0.35091093     0.07650
C225        C  0.20400267  0.01842072  0.37604145    -0.02150
C226        C  0.17883726  0.02044613  0.39850120    -0.02150
C227        C  0.15520455  0.04429883  0.39538613     0.07780
C228        C  0.15783998  0.06696759  0.37037010    -0.02350
Br229      Br  0.12556027  0.09926961  0.36502609    -0.00900
Br230      Br  0.18967259  0.09987083  0.31786255    -0.00970
Br231      Br  0.17579817  0.98860606  0.43200981    -0.00930
Br232      Br  0.23339666  0.98295774  0.37856612    -0.00910
C233        C  0.44345920  0.03409197  0.36304749    -0.02040
C234        C  0.44011107  0.05108358  0.39236551     0.07650
C235        C  0.41221605  0.06960937  0.39769841    -0.02150
C236        C  0.38777127  0.07022728  0.37457872    -0.02150
C237        C  0.39109248  0.05284916  0.34581935     0.07780
C238        C  0.41894488  0.03483591  0.34008369    -0.02350
Br239      Br  0.42297664  0.00990431  0.30105271    -0.00900
Br240      Br  0.48092292  0.00869487  0.35399355    -0.00970
Br241      Br  0.34994511  0.09559057  0.38175573    -0.00930
Br242      Br  0.40775338  0.09617866  0.43543945    -0.00910
C243        C  0.19863194  0.41448414  0.02243629    -0.02040
C244        C  0.19833996  0.39019605  0.99893471     0.07650
C245        C  0.17327017  0.38980480  0.47670881    -0.02150
C246        C  0.14836562  0.41226443  0.47815438    -0.02150
C247        C  0.14970439  0.43676052  0.00028844     0.07780
C248        C  0.17496052  0.43813343  0.02249697    -0.02350
Br249      Br  0.17640762  0.47118135  0.05475629    -0.00900
Br250      Br  0.23012076  0.41453648  0.05640090    -0.00970
Br251      Br  0.11292250  0.40780332  0.44919647    -0.00930
Br252      Br  0.17372997  0.35829211  0.44288861    -0.00910
C253        C  0.20683522  0.16645812  0.49278787    -0.02040
C254        C  0.20129541  0.19588214  0.00770023     0.07650
C255        C  0.16874160  0.20310067  0.01443760    -0.02150
C256        C  0.14642196  0.17883431  0.01781033    -0.02150
C257        C  0.15292926  0.14838065  0.00527502     0.07780
C258        C  0.18296653  0.14302878  0.49147308    -0.02350
Br259      Br  0.19165152  0.10414270  0.46776288    -0.00900
Br260      Br  0.24466933  0.15785182  0.46692602    -0.00970
Br261      Br  0.10716998  0.18875883  0.04052887    -0.00930
Br262      Br  0.14991414  0.24444429  0.00611839    -0.00910
C263        C  0.41941289  0.19845087  0.46275487    -0.02040
C264        C  0.39365226  0.19999088  0.98367223     0.07650
C265        C  0.39230861  0.17889106  0.01047994    -0.02150
C266        C  0.41608879  0.15562974  0.01479709    -0.02150
C267        C  0.44232147  0.15414578  0.99356506     0.07780
C268        C  0.44430857  0.17662606  0.46847999    -0.02350
Br269      Br  0.48206796  0.17902828  0.44213581    -0.00900
Br270      Br  0.42084583  0.22541468  0.42487042    -0.00970
Br271      Br  0.41429608  0.12785785  0.05191818    -0.00930
Br272      Br  0.35948828  0.18295328  0.04331416    -0.00910
C273        C  0.38809094  0.41955792  0.48795253    -0.02040
C274        C  0.39177717  0.39378760  0.00957806     0.07650
C275        C  0.41960450  0.39142196  0.02811751    -0.02150
C276        C  0.44412879  0.41353767  0.02377292    -0.02150
C277        C  0.43964802  0.44043015  0.00343299     0.07780
C278        C  0.41143725  0.44318477  0.48567009    -0.02350
Br279      Br  0.40550068  0.47785206  0.45535952    -0.00900
Br280      Br  0.35225774  0.42173642  0.45886741    -0.00970
Br281      Br  0.48401761  0.40519014  0.04508061    -0.00930
Br282      Br  0.42365306  0.35858694  0.06067223    -0.00910
C283        C  0.36824737  0.36772648  0.00975160     0.02940
C284        C  0.37758916  0.33628200  0.00099809    -0.13210
C285        C  0.35436420  0.31558443  0.98964686     0.00440
C286        C  0.32458570  0.32939752  0.48293575    -0.11730
C287        C  0.31291212  0.35418876  0.50190987     0.02930
C288        C  0.33541240  0.37465600  0.51503668    -0.11150
H289        H  0.40214551  0.32853850  0.00194238     0.08530
H290        H  0.30857709  0.31677260  0.46805288     0.06060
H291        H  0.32779181  0.39636975  0.52676302     0.05900
C292        C  0.36860918  0.22528558  0.48086652     0.02940
C293        C  0.37777492  0.25801676  0.98250519    -0.13210
C294        C  0.35470325  0.27996187  0.99292616     0.00440
C295        C  0.32667491  0.26721744  0.50603906    -0.11730
C296        C  0.31391629  0.23962152  0.49377942     0.02930
C297        C  0.33568485  0.21732240  0.48144891    -0.11150
H298        H  0.40189097  0.26570519  0.97819007     0.08530
H299        H  0.31218185  0.28165810  0.52072602     0.06060
H300        H  0.32788889  0.19369787  0.47540007     0.05900
C301        C  0.22621838  0.22165070  0.51168187     0.02940
C302        C  0.25915568  0.21502603  0.50645322    -0.13210
C303        C  0.27825268  0.23879878  0.49289449     0.00440
C304        C  0.26289503  0.26766179  0.48601157    -0.11730
C305        C  0.23846053  0.27787265  0.50648417     0.02930
C306        C  0.21936500  0.25395208  0.51981066    -0.11150
H307        H  0.26961241  0.19244875  0.51307048     0.08530
H308        H  0.27422237  0.28451256  0.47075620     0.06060
H309        H  0.20057775  0.26038850  0.53642530     0.05900
C310        C  0.22313309  0.36598907  0.50015922     0.02940
C311        C  0.25568634  0.37422965  0.49848956    -0.13210
C312        C  0.27843262  0.35319347  0.51094452     0.00440
C313        C  0.26718741  0.32530285  0.52551831    -0.11730
C314        C  0.23822552  0.31229920  0.51577004     0.02930
C315        C  0.21487361  0.33379489  0.50538609    -0.11150
H316        H  0.26286626  0.39714637  0.48921470     0.08530
H317        H  0.28232723  0.31197542  0.54130400     0.06060
H318        H  0.19082496  0.32569944  0.50185730     0.05900
C319        C  0.36550086  0.05326723  0.82153026     0.02940
C320        C  0.33648782  0.03704987  0.82679460    -0.13210
C321        C  0.31615502  0.03130355  0.80059507     0.00440
C322        C  0.32716114  0.04046447  0.76977997    -0.11730
C323        C  0.35126317  0.06274047  0.76557870     0.02930
C324        C  0.37141941  0.06838055  0.79152029    -0.11150
H325        H  0.33047934  0.02818190  0.85066627     0.08530
H326        H  0.31500696  0.03326653  0.74834169     0.06060
H327        H  0.39201784  0.08329407  0.78823216     0.05900
C328        C  0.22860476  0.03439457  0.82443767     0.02940
C329        C  0.26198473  0.03207565  0.82923934    -0.13210
C330        C  0.28193262  0.02094776  0.80392985     0.00440
C331        C  0.26659899  0.00898629  0.77639605    -0.11730
C332        C  0.23700297  0.02207853  0.76785370     0.02930
C333        C  0.21673343  0.03152742  0.79278875    -0.11150
H334        H  0.27207963  0.03985809  0.85184615     0.08530
H335        H  0.28059038  0.99817509  0.75727693     0.06060
H336        H  0.19246439  0.03821207  0.78724007     0.05900
C337        C  0.22477200  0.04268146  0.67933105     0.02940
C338        C  0.21611362  0.03341339  0.71117274    -0.13210
C339        C  0.23658095  0.03960515  0.73662168     0.00440
C340        C  0.26163112  0.06025612  0.73114797    -0.11730
C341        C  0.27443822  0.06445627  0.70004040     0.02930
C342        C  0.25581421  0.05464570  0.67379781    -0.11150
H343        H  0.19382137  0.02185928  0.71635263     0.08530
H344        H  0.27390450  0.06829233  0.75230725     0.06060
H345        H  0.26455598  0.05783777  0.64931419     0.05900
C346        C  0.36297420  0.05971211  0.67975298     0.02940
C347        C  0.37400117  0.06948891  0.71040877    -0.13210
C348        C  0.35237705  0.07989688  0.73390773     0.00440
C349        C  0.32275642  0.09053330  0.72275641    -0.11730
C350        C  0.30877055  0.07378496  0.69714169     0.02930
C351        C  0.32961351  0.05844368  0.67520417    -0.11150
H352        H  0.39875602  0.06745809  0.71690055     0.08530
H353        H  0.30780172  0.10332563  0.73973319     0.06060
H354        H  0.32014837  0.04491351  0.65534789     0.05900
C355        C  0.05771038  0.22549773  0.82149558     0.02940
C356        C  0.05421542  0.25705475  0.83213838    -0.13210
C357        C  0.06548555  0.28170696  0.81260624     0.00440
C358        C  0.08351245  0.27332339  0.78518955    -0.11730
C359        C  0.07590709  0.24504271  0.76886226     0.02930
C360        C  0.06554216  0.21970008  0.78864881    -0.11150
H361        H  0.04236215  0.26224613  0.85488072     0.08530
H362        H  0.09559880  0.29225118  0.77259983     0.06060
H363        H  0.06283157  0.19613336  0.77890480     0.05900
C364        C  0.03917216  0.36819937  0.81873073     0.02940
C365        C  0.05150436  0.33853500  0.82885215    -0.13210
C366        C  0.04714444  0.31189325  0.80951253     0.00440
C367        C  0.02880439  0.31490039  0.78164484    -0.11730
C368        C  0.02166639  0.34458954  0.76766364     0.02930
C369        C  0.02603487  0.37152692  0.78731421    -0.11150
H370        H  0.06455121  0.33640260  0.85127056     0.08530
H371        H  0.02477913  0.29320752  0.76879752     0.06060
H372        H  0.01944699  0.39485326  0.77849281     0.05900
C373        C  0.05172686  0.22310572  0.68132161     0.02940
C374        C  0.06319846  0.21949676  0.71350877    -0.13210
C375        C  0.06987613  0.24633822  0.73266728     0.00440
C376        C  0.06445924  0.27623516  0.71835106    -0.11730
C377        C  0.04682827  0.27989359  0.69014584     0.02930
C378        C  0.04253765  0.25366165  0.67035904    -0.11150
H379        H  0.06704370  0.19592976  0.72320771     0.08530
H380        H  0.06896523  0.29784727  0.73116110     0.06060
H381        H  0.03142548  0.25696254  0.64703477     0.05900
C382        C  0.03542571  0.36630445  0.67921386     0.02940
C383        C  0.03899795  0.33487645  0.66813545    -0.13210
C384        C  0.02818960  0.30992976  0.68744759     0.00440
C385        C  0.00976107  0.31767417  0.71478296    -0.11730
C386        C  0.01644679  0.34598906  0.73139831     0.02930
C387        C  0.02725992  0.37151967  0.71214262    -0.11150
H388        H  0.05056661  0.32987731  0.64520773     0.08530
H389        H  0.99801748  0.29838722  0.72715603     0.06060
H390        H  0.02997883  0.39489101  0.72238573     0.05900
O391        O  0.45555815  0.49459172  0.50177941    -0.86680
O392        O  0.13406395  0.49184194  0.50064960    -0.86840
O393        O  0.04416263  0.45664949  0.94498152    -0.88510
O394        O  0.04468106  0.45436692  0.55090989    -0.87270
O395        O  0.04286793  0.49244057  0.59058402    -0.86860
O396        O  0.04617009  0.49607529  0.90648053    -0.88230
O397        O  0.09555178  0.45382322  0.50015359    -0.86710
O398        O  0.49367039  0.45561558  0.49852840    -0.86290
Zr399      Zr  0.04468769  0.48119678  0.49849765     2.84310
O400        O  0.07660187  0.01153687  0.53195208    -1.08270
O401        O  0.01271158  0.01522477  0.96727517    -1.09000
C402        C  0.46459138  0.46514900  0.50097363     1.06430
C403        C  0.12474810  0.46273501  0.50044527     1.06370
C404        C  0.04470710  0.46674896  0.91536122     1.09360
C405        C  0.04363310  0.46338840  0.58072389     1.07140
H406        H  0.09018256  0.99965934  0.95394793     0.32690
O407        O  0.07706952  0.01313548  0.96747528    -1.29220
H408        H  0.00000667  0.99856439  0.54475854     0.32370
O409        O  0.01316850  0.01218127  0.53158990    -1.30900
O410        O  0.13574213  0.09474855  0.50528260    -0.86670
O411        O  0.45654595  0.09942704  0.49798659    -0.88170
O412        O  0.09884344  0.04495115  0.90950951    -0.86750
O413        O  0.09638720  0.04211508  0.59240378    -0.86800
O414        O  0.49135691  0.04363148  0.59189923    -0.86510
O415        O  0.49473469  0.05027665  0.90831947    -0.86310
O416        O  0.04823886  0.13600021  0.94845873    -0.86680
O417        O  0.04504090  0.13342537  0.55542997    -0.86150
O418        O  0.04756916  0.09820506  0.90856975    -0.87210
O419        O  0.04425303  0.09380736  0.59385868    -0.86370
O420        O  0.13607314  0.04546185  0.94982813    -0.86770
O421        O  0.45589489  0.04640883  0.94722619    -0.86490
O422        O  0.45465163  0.04546403  0.55187048    -0.86140
O423        O  0.13491373  0.04124815  0.55278352    -0.86550
O424        O  0.09817518  0.13386102  0.50132147    -0.86840
O425        O  0.49543947  0.13721049  0.49923558    -0.88180
Zr426      Zr  0.10910134  0.04406871  0.50061867     2.83100
Zr427      Zr  0.48140843  0.04638386  0.49966288     2.83500
Zr428      Zr  0.04595569  0.04690241  0.93526607     2.84090
Zr429      Zr  0.04446326  0.04291072  0.56573151     2.83360
Zr430      Zr  0.04617590  0.10897392  0.50156455     2.84220
O431        O  0.01318435  0.07675160  0.53353838    -1.08750
O432        O  0.07811894  0.07770373  0.96854107    -1.08250
C433        C  0.12721793  0.12415874  0.50399940     1.06400
C434        C  0.46620690  0.12853598  0.49744633     1.09020
C435        C  0.12785267  0.04482341  0.91985692     1.06580
C436        C  0.12566703  0.04149892  0.58257189     1.06940
C437        C  0.46230102  0.04391357  0.58193446     1.06520
C438        C  0.46530673  0.04913784  0.91757230     1.06070
C439        C  0.04835750  0.12711386  0.91850266     1.06500
C440        C  0.04468803  0.12326175  0.58505731     1.06010
H441        H  0.00135157  0.09289046  0.95483719     0.32690
O442        O  0.01408697  0.07911410  0.96833475    -1.29850
H443        H  0.09022885  0.08819778  0.54808917     0.32710
O444        O  0.07710857  0.07559799  0.53414406    -1.31240
C445        C  0.01347908  0.43409524  0.62311764    -0.02040
C446        C  0.04203234  0.43848268  0.60580637     0.07650
C447        C  0.06864599  0.41909846  0.61257594    -0.02150
C448        C  0.06757097  0.39743149  0.63860458    -0.02150
C449        C  0.03893657  0.39299194  0.65601582     0.07780
C450        C  0.01177558  0.41116096  0.64780864    -0.02350
Br451      Br  0.47152186  0.40341343  0.66887865    -0.00900
Br452      Br  0.47613120  0.45704905  0.61056325    -0.00970
Br453      Br  0.10557562  0.37461557  0.65094726    -0.00930
Br454      Br  0.10571576  0.42058239  0.58486949    -0.00910
C455        C  0.01932943  0.16755531  0.61676442    -0.02040
C456        C  0.04554474  0.14734016  0.61112742     0.07650
C457        C  0.07280422  0.15024663  0.63041804    -0.02150
C458        C  0.07507490  0.17496722  0.65311988    -0.02150
C459        C  0.04869523  0.19530053  0.65909305     0.07780
C460        C  0.02022850  0.19027774  0.64169895    -0.02350
Br461      Br  0.98154778  0.21280891  0.65303513    -0.00900
Br462      Br  0.98194482  0.16377179  0.59047608    -0.00970
Br463      Br  0.11553953  0.18197329  0.67364580    -0.00930
Br464      Br  0.10755415  0.12072337  0.62516621    -0.00910
C465        C  0.01414088  0.42777309  0.88282065    -0.02040
C466        C  0.04314546  0.44277374  0.88942892     0.07650
C467        C  0.07047096  0.43492967  0.87109180    -0.02150
C468        C  0.06927206  0.41065879  0.84776806    -0.02150
C469        C  0.04028403  0.39548492  0.84128082     0.07780
C470        C  0.01256178  0.40471744  0.85832717    -0.02350
Br471      Br  0.97250702  0.38506451  0.84876428    -0.00900
Br472      Br  0.97649035  0.43901254  0.90730264    -0.00970
Br473      Br  0.10736047  0.39795630  0.82487319    -0.00930
Br474      Br  0.10956146  0.45735703  0.87805380    -0.00910
C475        C  0.02704461  0.18126416  0.84796186    -0.02040
C476        C  0.05490821  0.19932291  0.84521629     0.07650
C477        C  0.08050752  0.19342151  0.86629548    -0.02150
C478        C  0.07781472  0.17059697  0.89097054    -0.02150
C479        C  0.05025612  0.15203059  0.89340501     0.07780
C480        C  0.02513870  0.15683289  0.87129906    -0.02350
Br481      Br  0.48829178  0.12992713  0.87289121    -0.00900
Br482      Br  0.49152969  0.19042228  0.82029670    -0.00770
Br483      Br  0.11241952  0.16423104  0.92088156    -0.00930
Br484      Br  0.11978752  0.21620206  0.86076167    -0.00910
C485        C  0.44061379  0.03466096  0.63945140    -0.02040
C486        C  0.43553694  0.04301701  0.60642230     0.07650
C487        C  0.40384481  0.05098907  0.59720704    -0.02150
C488        C  0.38115538  0.05905150  0.62098796    -0.02150
C489        C  0.38607685  0.05010882  0.65363451     0.07780
C490        C  0.41475578  0.03411201  0.66132479    -0.02350
Br491      Br  0.41793405  0.00819572  0.69996870    -0.00900
Br492      Br  0.48205315  0.02452234  0.65694197    -0.00970
Br493      Br  0.34560885  0.08546279  0.60780191    -0.00930
Br494      Br  0.38868211  0.04855290  0.55304956    -0.00910
C495        C  0.18071821  0.01476969  0.64974456    -0.02040
C496        C  0.20109131  0.04114947  0.65263121     0.07650
C497        C  0.19651447  0.06748069  0.63159513    -0.02150
C498        C  0.17346423  0.06628014  0.60719372    -0.02150
C499        C  0.15105359  0.04164751  0.60709476     0.07780
C500        C  0.15410296  0.01656581  0.62941939    -0.02350
Br501      Br  0.12179275  0.98477515  0.63277444    -0.00900
Br502      Br  0.19030660  0.97482439  0.67081507    -0.00970
Br503      Br  0.17220849  0.09933050  0.57471420    -0.00930
Br504      Br  0.21884910  0.10697477  0.63733405    -0.00910
C505        C  0.18318913  0.06510507  0.84966297    -0.02040
C506        C  0.20575738  0.04009193  0.85148145     0.07650
C507        C  0.20309119  0.01737389  0.87650937    -0.02150
C508        C  0.17783461  0.01924330  0.89893355    -0.02150
C509        C  0.15420754  0.04310623  0.89589334     0.07780
C510        C  0.15688746  0.06587394  0.87096066    -0.02350
Br511      Br  0.12456791  0.09813617  0.86562839    -0.00900
Br512      Br  0.18886316  0.09916873  0.81879838    -0.00970
Br513      Br  0.17460708  0.98726436  0.93235912    -0.00930
Br514      Br  0.23258441  0.98202220  0.87900137    -0.00910
C515        C  0.44335244  0.03405566  0.86314957    -0.02040
C516        C  0.44017525  0.05116520  0.89241151     0.07650
C517        C  0.41227456  0.06966535  0.89784004    -0.02150
C518        C  0.38766260  0.07013020  0.87489358    -0.02150
C519        C  0.39079946  0.05260768  0.84620704     0.07780
C520        C  0.41866441  0.03463270  0.84036354    -0.02350
Br521      Br  0.42249987  0.00955088  0.80141716    -0.00900
Br522      Br  0.48083198  0.00874127  0.85393889    -0.00970
Br523      Br  0.34987010  0.09551175  0.88218615    -0.00930
Br524      Br  0.40802516  0.09641651  0.93546844    -0.00910
C525        C  0.19867324  0.41555827  0.52243538    -0.02040
C526        C  0.19831865  0.39110436  0.49909587     0.07650
C527        C  0.17335318  0.38899057  0.97647122    -0.02150
C528        C  0.14850412  0.41150685  0.97789952    -0.02150
C529        C  0.14958918  0.43765914  0.50039625     0.07780
C530        C  0.17496606  0.43920781  0.52245067    -0.02350
Br531      Br  0.17648070  0.47247926  0.55447913    -0.00900
Br532      Br  0.23027767  0.41583399  0.55627081    -0.00970
Br533      Br  0.11320545  0.40739619  0.94870316    -0.00930
Br534      Br  0.17382059  0.35751974  0.94262333    -0.00910
C535        C  0.20754230  0.16545070  0.99333582    -0.02040
C536        C  0.20052802  0.19659057  0.50770492     0.07650
C537        C  0.16801762  0.20343391  0.51502266    -0.02150
C538        C  0.14595077  0.17891273  0.51834139    -0.02150
C539        C  0.15264255  0.14862827  0.50548045     0.07780
C540        C  0.18334888  0.14235581  0.99169285    -0.02350
Br541      Br  0.19168429  0.10335163  0.96805113    -0.00900
Br542      Br  0.24599283  0.15565569  0.96891562    -0.00970
Br543      Br  0.10677498  0.18819041  0.54147348    -0.00930
Br544      Br  0.14873762  0.24470953  0.50755615    -0.00910
C545        C  0.42000564  0.19860772  0.96251900    -0.02040
C546        C  0.39313660  0.19986266  0.48401956     0.07650
C547        C  0.39188999  0.17874398  0.51081650    -0.02150
C548        C  0.41569490  0.15548151  0.51504911    -0.02150
C549        C  0.44184596  0.15397187  0.49371056     0.07780
C550        C  0.44489186  0.17681784  0.96836097    -0.02350
Br551      Br  0.48277220  0.17930865  0.94221326    -0.00900
Br552      Br  0.42155576  0.22555787  0.92462634    -0.00970
Br553      Br  0.41407534  0.12776086  0.55221444    -0.00930
Br554      Br  0.35917347  0.18279076  0.54375431    -0.00910
C555        C  0.38794420  0.41962934  0.98784740    -0.02040
C556        C  0.39184816  0.39375063  0.50974136     0.07650
C557        C  0.41966373  0.39135532  0.52829943    -0.02150
C558        C  0.44423302  0.41341722  0.52393526    -0.02150
C559        C  0.43979413  0.44029945  0.50357372     0.07780
C560        C  0.41125621  0.44329436  0.98556606    -0.02350
Br561      Br  0.40524508  0.47797092  0.95528214    -0.00900
Br562      Br  0.35205271  0.42180797  0.95883898    -0.00970
Br563      Br  0.48410601  0.40502275  0.54525882    -0.00930
Br564      Br  0.42363152  0.35857310  0.56091800    -0.00910
C565        C  0.36813151  0.86748347  0.50949164     0.02940
C566        C  0.37752791  0.83609750  0.50061981    -0.13210
C567        C  0.35436184  0.81543462  0.48908391     0.00440
C568        C  0.32443845  0.82966761  0.98237044    -0.11730
C569        C  0.31259984  0.85456803  0.00112859     0.02930
C570        C  0.33500321  0.87509610  0.01434881    -0.11150
H571        H  0.40208216  0.82835929  0.50164445     0.08530
H572        H  0.30855881  0.81693399  0.96743384     0.06060
H573        H  0.32728085  0.89681351  0.02600157     0.05900
C574        C  0.36875143  0.72564725  0.98095419     0.02940
C575        C  0.37766862  0.75782413  0.48223934    -0.13210
C576        C  0.35463013  0.77985142  0.49254596     0.00440
C577        C  0.32676435  0.76760890  0.00601679    -0.11730
C578        C  0.31405298  0.73991818  0.99391743     0.02930
C579        C  0.33584645  0.71761720  0.98164178    -0.11150
H580        H  0.40180237  0.76545613  0.47792298     0.08530
H581        H  0.31227448  0.78208745  0.02067206     0.06060
H582        H  0.32808680  0.69395475  0.97569562     0.05900
C583        C  0.22640580  0.72173531  0.01184982     0.02940
C584        C  0.25935135  0.71517106  0.00659472    -0.13210
C585        C  0.27839573  0.73901078  0.99309221     0.00440
C586        C  0.26296835  0.76782346  0.98617829    -0.11730
C587        C  0.23848491  0.77799469  0.00659294     0.02930
C588        C  0.21942728  0.75404022  0.01989880    -0.11150
H589        H  0.26979081  0.69249609  0.01291475     0.08530
H590        H  0.27426406  0.78469625  0.97093873     0.06060
H591        H  0.20066535  0.76047531  0.03652708     0.05900
C592        C  0.22259719  0.86597530  0.99985243     0.02940
C593        C  0.25514003  0.87428516  0.99769233    -0.13210
C594        C  0.27810168  0.85345506  0.01017466     0.00440
C595        C  0.26708126  0.82568151  0.02513366    -0.11730
C596        C  0.23810936  0.81246172  0.01574949     0.02930
C597        C  0.21454592  0.83377909  0.00549170    -0.11150
H598        H  0.26215087  0.89714072  0.98812635     0.08530
H599        H  0.28239098  0.81257215  0.04093013     0.06060
H600        H  0.19048701  0.82553429  0.00244199     0.05900
C601        C  0.36624228  0.55335293  0.32114493     0.02940
C602        C  0.33742836  0.53684992  0.32640923    -0.13210
C603        C  0.31713169  0.53097711  0.30024706     0.00440
C604        C  0.32799103  0.54028090  0.26942077    -0.11730
C605        C  0.35188806  0.56279290  0.26524488     0.02930
C606        C  0.37201213  0.56857418  0.29117398    -0.11150
H607        H  0.33153605  0.52788185  0.35027325     0.08530
H608        H  0.31582901  0.53303294  0.24799888     0.06060
H609        H  0.39246772  0.58368488  0.28790691     0.05900
C610        C  0.22977813  0.53382479  0.32449219     0.02940
C611        C  0.26316862  0.53159844  0.32911891    -0.13210
C612        C  0.28301034  0.52045794  0.30373900     0.00440
C613        C  0.26760761  0.50841591  0.27629788    -0.11730
C614        C  0.23791528  0.52138140  0.26793139     0.02930
C615        C  0.21772716  0.53073195  0.29295417    -0.11150
H616        H  0.27335479  0.53953227  0.35162659     0.08530
H617        H  0.28157327  0.49772398  0.25708851     0.06060
H618        H  0.19340254  0.53730983  0.28752241     0.05900
C619        C  0.22515303  0.54240717  0.17969193     0.02940
C620        C  0.21671688  0.53294857  0.21151145    -0.13210
C621        C  0.23731239  0.53907180  0.23683480     0.00440
C622        C  0.26222787  0.55987999  0.23134119    -0.11730
C623        C  0.27481600  0.56431716  0.20017888     0.02930
C624        C  0.25610208  0.55452347  0.17400889    -0.11150
H625        H  0.19448791  0.52131106  0.21678093     0.08530
H626        H  0.27457819  0.56788184  0.25246670     0.06060
H627        H  0.26467423  0.55788284  0.14948635     0.05900
C628        C  0.36321942  0.55997171  0.17945661     0.02940
C629        C  0.37435429  0.56981615  0.21004153    -0.13210
C630        C  0.35279788  0.58008727  0.23365961     0.00440
C631        C  0.32308049  0.59061277  0.22268130    -0.11730
C632        C  0.30905852  0.57385124  0.19710185     0.02930
C633        C  0.32985225  0.55861649  0.17504527    -0.11150
H634        H  0.39914659  0.56785464  0.21641333     0.08530
H635        H  0.30813172  0.60327233  0.23976885     0.06060
H636        H  0.32034552  0.54505250  0.15523384     0.05900
C637        C  0.05803842  0.72527449  0.32071262     0.02940
C638        C  0.05422385  0.75667720  0.33167337    -0.13210
C639        C  0.06544484  0.78160573  0.31249056     0.00440
C640        C  0.08371071  0.77367329  0.28509687    -0.11730
C641        C  0.07654703  0.74542766  0.26851125     0.02930
C642        C  0.06629409  0.71983560  0.28796082    -0.11150
H643        H  0.04213286  0.76154186  0.35436330     0.08530
H644        H  0.09558224  0.79285339  0.27269233     0.06060
H645        H  0.06392384  0.69631055  0.27802015     0.05900
C646        C  0.03863231  0.86782380  0.31869627     0.02940
C647        C  0.05113527  0.83824705  0.32880845    -0.13210
C648        C  0.04678668  0.81157093  0.30953175     0.00440
C649        C  0.02834181  0.81444909  0.28171630    -0.11730
C650        C  0.02098895  0.84411241  0.26780026     0.02930
C651        C  0.02527310  0.87105459  0.28741347    -0.11150
H652        H  0.06434209  0.83621695  0.35113830     0.08530
H653        H  0.02449993  0.79275121  0.26880137     0.06060
H654        H  0.01851530  0.89434925  0.27863525     0.05900
C655        C  0.05237953  0.72360082  0.18113352     0.02940
C656        C  0.06404795  0.72003172  0.21320295    -0.13210
C657        C  0.07057183  0.74687452  0.23236927     0.00440
C658        C  0.06479225  0.77675770  0.21819465    -0.11730
C659        C  0.04704868  0.78025794  0.19004020     0.02930
C660        C  0.04296125  0.75406088  0.17021183    -0.11150
H661        H  0.06810045  0.69646774  0.22281623     0.08530
H662        H  0.06904066  0.79837184  0.23110879     0.06060
H663        H  0.03173636  0.75729667  0.14693372     0.05900
C664        C  0.03502286  0.86636908  0.17968049     0.02940
C665        C  0.03868070  0.83508250  0.16832758    -0.13210
C666        C  0.02800216  0.80997365  0.18743173     0.00440
C667        C  0.00945027  0.81736876  0.21477405    -0.11730
C668        C  0.01586698  0.84563212  0.23157302     0.02930
C669        C  0.02667516  0.87132367  0.21257045    -0.11150
H670        H  0.05032511  0.83029845  0.14538975     0.08530
H671        H  0.99788360  0.79789478  0.22701301     0.06060
H672        H  0.02928572  0.89463741  0.22297681     0.05900
O673        O  0.45553238  0.99479819  0.00177695    -0.86680
O674        O  0.13331636  0.99156167  0.00064218    -0.86840
O675        O  0.04412599  0.95679653  0.44386333    -0.88510
O676        O  0.04404765  0.95489944  0.05210336    -0.87270
O677        O  0.04342211  0.99269070  0.09203880    -0.86860
O678        O  0.04538202  0.99638001  0.40551483    -0.88230
O679        O  0.09441744  0.95398186  0.00092845    -0.86710
O680        O  0.49360732  0.95577530  0.99852677    -0.86290
Zr681      Zr  0.04384479  0.98207604  0.99995430     2.84310
O682        O  0.07663844  0.51127568  0.03327572    -1.08270
O683        O  0.01342570  0.51376731  0.46532990    -1.09000
C684        C  0.46452834  0.96535337  0.00093989     1.06430
C685        C  0.12373409  0.96254194  0.00083947     1.06370
C686        C  0.04428121  0.96701073  0.41432259     1.09360
C687        C  0.04357833  0.96374725  0.08196250     1.07140
H688        H  0.09152208  0.49943194  0.45351207     0.32690
O689        O  0.07796328  0.51275305  0.46674206    -1.29220
H690        H  0.99952217  0.49973588  0.04508601     0.32370
O691        O  0.01309655  0.51302171  0.03201374    -1.30900
O692        O  0.13671026  0.59395336  0.00599908    -0.86670
O693        O  0.45665446  0.59964070  0.99763094    -0.88170
O694        O  0.10020207  0.54449568  0.40891270    -0.86750
O695        O  0.09633182  0.54210187  0.09320612    -0.86800
O696        O  0.49139220  0.54378958  0.09151150    -0.86510
O697        O  0.49500505  0.55023991  0.40830175    -0.86310
O698        O  0.04802251  0.63476086  0.44591754    -0.86680
O699        O  0.04581643  0.63363037  0.05591879    -0.86150
O700        O  0.04826164  0.59669107  0.40633275    -0.87210
O701        O  0.04435891  0.59419846  0.09445865    -0.86370
O702        O  0.13686579  0.54549995  0.44978403    -0.86770
O703        O  0.45605522  0.54621997  0.44707814    -0.86490
O704        O  0.45470234  0.54563994  0.05147314    -0.86140
O705        O  0.13517605  0.54098740  0.05389960    -0.86550
O706        O  0.09927365  0.63325133  0.00240484    -0.86840
O707        O  0.49556740  0.63740615  0.99897214    -0.88180
Zr708      Zr  0.10964720  0.54332066  0.00175658     2.83100
Zr709      Zr  0.48151449  0.54655805  0.99927596     2.83500
Zr710      Zr  0.04687008  0.54564272  0.43359889     2.84090
Zr711      Zr  0.04446293  0.54346219  0.06631903     2.83360
Zr712      Zr  0.04715948  0.60884789  0.00235254     2.84220
O713        O  0.01342065  0.57726279  0.03394375    -1.08750
O714        O  0.07858841  0.57688024  0.46694459    -1.08250
C715        C  0.12826909  0.62342365  0.00491777     1.06400
C716        C  0.46632719  0.62874982  0.99715753     1.09020
C717        C  0.12904577  0.54469347  0.41968961     1.06580
C718        C  0.12568610  0.54143981  0.08357817     1.06940
C719        C  0.46234729  0.54407373  0.08153945     1.06520
C720        C  0.46556856  0.54903733  0.41747238     1.06070
C721        C  0.04863461  0.62567438  0.41607538     1.06500
C722        C  0.04511654  0.62357726  0.08554540     1.06010
H723        H  0.00138669  0.59115197  0.45224284     0.32690
O724        O  0.01414099  0.57761291  0.46596712    -1.29850
H725        H  0.09096292  0.58800906  0.04897429     0.32710
O726        O  0.07784073  0.57544976  0.03499276    -1.31240
C727        C  0.01338711  0.93462728  0.12427468    -0.02040
C728        C  0.04190120  0.93880473  0.10686537     0.07650
C729        C  0.06846034  0.91933395  0.11349096    -0.02150
C730        C  0.06732881  0.89759562  0.13941471    -0.02150
C731        C  0.03866509  0.89319970  0.15678481     0.07780
C732        C  0.01158113  0.91155876  0.14878032    -0.02350
Br733      Br  0.47157024  0.90356731  0.16901668    -0.00900
Br734      Br  0.47614189  0.95718705  0.11068564    -0.00970
Br735      Br  0.10528542  0.87464353  0.15166743    -0.00930
Br736      Br  0.10554666  0.92092482  0.08579978    -0.00910
C737        C  0.01977113  0.66786446  0.11704844    -0.02040
C738        C  0.04599444  0.64767788  0.11146043     0.07650
C739        C  0.07331341  0.65064211  0.13061530    -0.02150
C740        C  0.07569927  0.67550896  0.15307046    -0.02150
C741        C  0.04930133  0.69579621  0.15904321     0.07780
C742        C  0.02073304  0.69065684  0.14186887    -0.02350
Br743      Br  0.98203418  0.71309565  0.15334433    -0.00900
Br744      Br  0.98232346  0.66393141  0.09086624    -0.00970
Br745      Br  0.11632374  0.68276587  0.17319211    -0.00930
Br746      Br  0.10791631  0.62092983  0.12560299    -0.00910
C747        C  0.01367513  0.92788595  0.38218397    -0.02040
C748        C  0.04265480  0.94304404  0.38847731     0.07650
C749        C  0.07000189  0.93497387  0.37030792    -0.02150
C750        C  0.06880163  0.91044630  0.34729424    -0.02150
C751        C  0.03980747  0.89519120  0.34104870     0.07780
C752        C  0.01208974  0.90455336  0.35800743    -0.02350
Br753      Br  0.97205621  0.88466553  0.34882555    -0.00900
Br754      Br  0.97612726  0.93910420  0.40683013    -0.00970
Br755      Br  0.10688266  0.89750632  0.32452205    -0.00930
Br756      Br  0.10913639  0.95733848  0.37721540    -0.00910
C757        C  0.02769724  0.68015687  0.34582809    -0.02040
C758        C  0.05522740  0.69880809  0.34399800     0.07650
C759        C  0.08061892  0.69296383  0.36532234    -0.02150
C760        C  0.07796631  0.66964321  0.38946361    -0.02150
C761        C  0.05072565  0.65054367  0.39103799     0.07780
C762        C  0.02589518  0.65523872  0.36860457    -0.02350
Br763      Br  0.48832279  0.62982806  0.37293939    -0.00900
Br764      Br  0.49150145  0.69033857  0.32035685    -0.00770
Br765      Br  0.11217840  0.66344389  0.41988476    -0.00930
Br766      Br  0.11956796  0.71651590  0.36086517    -0.00910
C767        C  0.44073436  0.53482637  0.13906824    -0.02040
C768        C  0.43560910  0.54316002  0.10603951     0.07650
C769        C  0.40390750  0.55111498  0.09685194    -0.02150
C770        C  0.38124778  0.55919174  0.12065526    -0.02150
C771        C  0.38623650  0.55030529  0.15330334     0.07780
C772        C  0.41491023  0.53429909  0.16097068    -0.02350
Br773      Br  0.41812961  0.50844016  0.19965377    -0.00900
Br774      Br  0.48219437  0.52473326  0.15654420    -0.00970
Br775      Br  0.34563936  0.58553130  0.10750282    -0.00930
Br776      Br  0.38871568  0.54866837  0.05270742    -0.00910
C777        C  0.18087975  0.51463907  0.15038684    -0.02040
C778        C  0.20128445  0.54100457  0.15321727     0.07650
C779        C  0.19654000  0.56745857  0.13239999    -0.02150
C780        C  0.17337666  0.56632795  0.10814660    -0.02150
C781        C  0.15092926  0.54172777  0.10816500     0.07780
C782        C  0.15408096  0.51656655  0.13034577    -0.02350
Br783      Br  0.12178161  0.48473556  0.13362061    -0.00900
Br784      Br  0.19070357  0.47454351  0.17102836    -0.00970
Br785      Br  0.17221353  0.59930037  0.07558923    -0.00930
Br786      Br  0.21879846  0.60699188  0.13822759    -0.00910
C787        C  0.18451389  0.56476706  0.34958072    -0.02040
C788        C  0.20710418  0.53979756  0.35158904     0.07650
C789        C  0.20457854  0.51734198  0.37686848    -0.02150
C790        C  0.17938522  0.51939163  0.39933841    -0.02150
C791        C  0.15565047  0.54310836  0.39603238     0.07780
C792        C  0.15822118  0.56563616  0.37086121    -0.02350
Br793      Br  0.12570832  0.59762180  0.36506727    -0.00900
Br794      Br  0.19009250  0.59858125  0.31840311    -0.00970
Br795      Br  0.17634262  0.48776278  0.43311047    -0.00930
Br796      Br  0.23411219  0.48203950  0.37959682    -0.00910
C797        C  0.44391040  0.53413520  0.36293078    -0.02040
C798        C  0.44056334  0.55112647  0.39224465     0.07650
C799        C  0.41266016  0.56962918  0.39761325    -0.02150
C800        C  0.38818657  0.57019806  0.37454046    -0.02150
C801        C  0.39149764  0.55279832  0.34580236     0.07780
C802        C  0.41936878  0.53483814  0.34000875    -0.02350
Br803      Br  0.42338548  0.50992178  0.30096472    -0.00900
Br804      Br  0.48139170  0.50877673  0.35384086    -0.00970
Br805      Br  0.35032242  0.59549886  0.38175577    -0.00930
Br806      Br  0.40820153  0.59620839  0.43534590    -0.00910
C807        C  0.19839457  0.91587068  0.02184536    -0.02040
C808        C  0.19760077  0.89099937  0.99898123     0.07650
C809        C  0.17330698  0.88887115  0.47525716    -0.02150
C810        C  0.14882710  0.91184589  0.47615858    -0.02150
C811        C  0.14844863  0.93723857  0.00091015     0.07780
C812        C  0.17450339  0.93935657  0.02211530    -0.02350
Br813      Br  0.17665585  0.97305125  0.05362822    -0.00900
Br814      Br  0.23087573  0.91697351  0.05479673    -0.00970
Br815      Br  0.11293948  0.90688262  0.44783364    -0.00930
Br816      Br  0.17278552  0.85620939  0.44261252    -0.00910
C817        C  0.20793692  0.66433067  0.49533246    -0.02040
C818        C  0.20088850  0.69650202  0.00807989     0.07650
C819        C  0.16846462  0.70291103  0.01605451    -0.02150
C820        C  0.14679223  0.67809286  0.01964049    -0.02150
C821        C  0.15362088  0.64795147  0.00646716     0.07780
C822        C  0.18328138  0.64183782  0.49242550    -0.02350
Br823      Br  0.19164051  0.60280449  0.46874957    -0.00900
Br824      Br  0.24816282  0.65172016  0.47569145    -0.00970
Br825      Br  0.10796984  0.68677116  0.04361695    -0.00930
Br826      Br  0.14852718  0.74394707  0.00902543    -0.00910
C827        C  0.41986760  0.69841526  0.46238424    -0.02040
C828        C  0.39333104  0.70025078  0.98406423     0.07650
C829        C  0.39212647  0.67908166  0.01082528    -0.02150
C830        C  0.41587766  0.65573513  0.01491963    -0.02150
C831        C  0.44197362  0.65421626  0.99350917     0.07780
C832        C  0.44477791  0.67665591  0.46827025    -0.02350
Br833      Br  0.48271950  0.67922812  0.44222143    -0.00900
Br834      Br  0.42146207  0.72535305  0.42448222    -0.00970
Br835      Br  0.41424514  0.62787199  0.05197486    -0.00930
Br836      Br  0.35954851  0.68316474  0.04390109    -0.00910
C837        C  0.38783063  0.91950208  0.48788711    -0.02040
C838        C  0.39149482  0.89422519  0.00949217     0.07650
C839        C  0.41922592  0.89177339  0.02818615    -0.02150
C840        C  0.44390432  0.91372573  0.02387393    -0.02150
C841        C  0.43964874  0.94058144  0.00345240     0.07780
C842        C  0.41114378  0.94317227  0.48572963    -0.02350
Br843      Br  0.40519059  0.97793201  0.45553265    -0.00900
Br844      Br  0.35197700  0.92179728  0.45883589    -0.00970
Br845      Br  0.48367812  0.90523229  0.04534183    -0.00930
Br846      Br  0.42292882  0.85907398  0.06092114    -0.00910
C847        C  0.36786219  0.86824729  0.00955724     0.02940
C848        C  0.37720360  0.83673639  0.00107303    -0.13210
C849        C  0.35404605  0.81598726  0.98970289     0.00440
C850        C  0.32471757  0.82911683  0.48195350    -0.11730
C851        C  0.31292016  0.85364291  0.50118427     0.02930
C852        C  0.33527942  0.87414082  0.51452632    -0.11150
H853        H  0.40173917  0.82896007  0.00223905     0.08530
H854        H  0.30869585  0.81634555  0.46715066     0.06060
H855        H  0.32751434  0.89571487  0.52642519     0.05900
C856        C  0.36893270  0.72516521  0.48019884     0.02940
C857        C  0.37743863  0.75834239  0.98287342    -0.13210
C858        C  0.35440931  0.78037412  0.99325175     0.00440
C859        C  0.32686668  0.76714224  0.50509812    -0.11730
C860        C  0.31420092  0.73951570  0.49289729     0.02930
C861        C  0.33601906  0.71718978  0.48070773    -0.11150
H862        H  0.40153336  0.76600313  0.97838210     0.08530
H863        H  0.31229062  0.78164100  0.51965180     0.06060
H864        H  0.32825990  0.69352797  0.47475586     0.05900
C865        C  0.22708881  0.72071334  0.51204818     0.02940
C866        C  0.26001911  0.71462022  0.50643080    -0.13210
C867        C  0.27856898  0.73842698  0.49224974     0.00440
C868        C  0.26284321  0.76713804  0.48550500    -0.11730
C869        C  0.23859278  0.77714088  0.50636049     0.02930
C870        C  0.21998638  0.75299703  0.52014390    -0.11150
H871        H  0.27130549  0.69302739  0.51466953     0.08530
H872        H  0.27394350  0.78418080  0.47023461     0.06060
H873        H  0.20098866  0.75920431  0.53666002     0.05900
C874        C  0.22321265  0.86510437  0.49890378     0.02940
C875        C  0.25577056  0.87318100  0.49703482    -0.13210
C876        C  0.27844624  0.85248269  0.51008798     0.00440
C877        C  0.26721427  0.82476228  0.52506235    -0.11730
C878        C  0.23820857  0.81162913  0.51553578     0.02930
C879        C  0.21486835  0.83302633  0.50481563    -0.11150
H880        H  0.26302044  0.89588296  0.48726198     0.08530
H881        H  0.28240031  0.81157006  0.54095248     0.06060
H882        H  0.19079463  0.82492239  0.50151723     0.05900
C883        C  0.36584441  0.55318120  0.82059010     0.02940
C884        C  0.33699956  0.53666124  0.82575105    -0.13210
C885        C  0.31668940  0.53089765  0.79953436     0.00440
C886        C  0.32756431  0.54031627  0.76876257    -0.11730
C887        C  0.35142619  0.56286333  0.76469437     0.02930
C888        C  0.37159462  0.56851231  0.79065184    -0.11150
H889        H  0.33107525  0.52762986  0.84958099     0.08530
H890        H  0.31540724  0.53316834  0.74729698     0.06060
H891        H  0.39204367  0.58364014  0.78743767     0.05900
C892        C  0.22934193  0.53383449  0.82384049     0.02940
C893        C  0.26273143  0.53149646  0.82838026    -0.13210
C894        C  0.28250767  0.52047628  0.80291477     0.00440
C895        C  0.26702151  0.50868054  0.77538374    -0.11730
C896        C  0.23732262  0.52175673  0.76711946     0.02930
C897        C  0.21721374  0.53102345  0.79227916    -0.11150
H898        H  0.27297480  0.53924435  0.85092997     0.08530
H899        H  0.28092851  0.49805482  0.75609508     0.06060
H900        H  0.19289704  0.53771775  0.78696042     0.05900
C901        C  0.22399840  0.54401351  0.67897886     0.02940
C902        C  0.21584231  0.53398980  0.71074421    -0.13210
C903        C  0.23670212  0.53957548  0.73603204     0.00440
C904        C  0.26173086  0.56024048  0.73061156    -0.11730
C905        C  0.27413385  0.56505007  0.69944463     0.02930
C906        C  0.25502097  0.55603052  0.67322393    -0.11150
H907        H  0.19359912  0.52235602  0.71598042     0.08530
H908        H  0.27425717  0.56791743  0.75175122     0.06060
H909        H  0.26338402  0.55984765  0.64869628     0.05900
C910        C  0.36265568  0.56004987  0.67892373     0.02940
C911        C  0.37380585  0.56989529  0.70949849    -0.13210
C912        C  0.35230681  0.58021417  0.73312390     0.00440
C913        C  0.32260530  0.59084803  0.72215816    -0.11730
C914        C  0.30850431  0.57429798  0.69644994     0.02930
C915        C  0.32925495  0.55893089  0.67442919    -0.11150
H916        H  0.39858997  0.56786377  0.71588238     0.08530
H917        H  0.30769891  0.60352175  0.73927550     0.06060
H918        H  0.31965558  0.54545373  0.65460037     0.05900
C919        C  0.05382733  0.72553357  0.82420382     0.02940
C920        C  0.05060216  0.75779067  0.83325814    -0.13210
C921        C  0.03755547  0.77934388  0.81103080     0.00440
C922        C  0.02513173  0.76661288  0.78247721    -0.11730
C923        C  0.03773257  0.73843046  0.76953908     0.02930
C924        C  0.05137684  0.71695108  0.79126062    -0.11150
H925        H  0.05725762  0.76561023  0.85717026     0.08530
H926        H  0.00930946  0.78075763  0.76827874     0.06060
H927        H  0.05857257  0.69355551  0.78316520     0.05900
C928        C  0.03242963  0.86957379  0.82087122     0.02940
C929        C  0.03157247  0.83731068  0.83097197    -0.13210
C930        C  0.04466741  0.81414770  0.81042392     0.00440
C931        C  0.06103139  0.82503967  0.78317776    -0.11730
C932        C  0.05193377  0.85342872  0.76809717     0.02930
C933        C  0.03870174  0.87696857  0.78791083    -0.11150
H934        H  0.02235152  0.83077285  0.85456678     0.08530
H935        H  0.07603219  0.80891793  0.77042355     0.06060
H936        H  0.03475058  0.90068386  0.77855027     0.05900
C937        C  0.03273265  0.72407928  0.67814726     0.02940
C938        C  0.03013429  0.71701243  0.71173918    -0.13210
C939        C  0.04400787  0.73768363  0.73389503     0.00440
C940        C  0.06163604  0.76259917  0.72108564    -0.11730
C941        C  0.05321083  0.77603945  0.69131730     0.02930
C942        C  0.04044498  0.75548740  0.66836017    -0.11150
H943        H  0.01968665  0.69504777  0.72005079     0.08530
H944        H  0.07702827  0.77531601  0.73655525     0.06060
H945        H  0.03767749  0.76324113  0.64353464     0.05900
C946        C  0.06500345  0.86520425  0.67680310     0.02940
C947        C  0.06271286  0.83267770  0.66815612    -0.13210
C948        C  0.05021975  0.81152221  0.69101094     0.00440
C949        C  0.03749256  0.82485015  0.71906044    -0.11730
C950        C  0.04990355  0.85248098  0.73195284     0.02930
C951        C  0.06278645  0.87415712  0.70990011    -0.11150
H952        H  0.06857904  0.82467046  0.64397030     0.08530
H953        H  0.02250177  0.81081256  0.73373677     0.06060
H954        H  0.06864260  0.89789578  0.71757107     0.05900
O955        O  0.45524540  0.99456360  0.50194924    -0.86680
O956        O  0.13487803  0.99222767  0.49834675    -0.86840
O957        O  0.04041649  0.95715310  0.94697315    -0.88510
O958        O  0.04907711  0.95290043  0.54867151    -0.87270
O959        O  0.04782229  0.98978097  0.58952033    -0.86860
O960        O  0.04165975  0.99618280  0.90799201    -0.88230
O961        O  0.09660663  0.95408017  0.49739556    -0.86710
O962        O  0.49336588  0.95559804  0.49863571    -0.86290
Zr963      Zr  0.04536166  0.98110781  0.49748492     2.84310
O964        O  0.07568367  0.51217995  0.53277473    -1.08270
O965        O  0.01405798  0.51445528  0.96626322    -1.09000
C966        C  0.46428507  0.96512239  0.50110526     1.06430
C967        C  0.12579948  0.96310030  0.49759928     1.06370
C968        C  0.03972930  0.96705420  0.91737623     1.09360
C969        C  0.04984446  0.96109870  0.57867142     1.07140
H970        H  0.09202182  0.49938937  0.95377327     0.32690
O971        O  0.07866132  0.51263600  0.96728454    -1.29220
H972        H  0.99871527  0.49991526  0.54447282     0.32370
O973        O  0.01215507  0.51316644  0.53121826    -1.30900
O974        O  0.13513922  0.59480304  0.50530057    -0.86670
O975        O  0.45688976  0.59942664  0.49777917    -0.88170
O976        O  0.10074858  0.54490736  0.90975071    -0.86750
O977        O  0.09420177  0.54471175  0.59279841    -0.86800
O978        O  0.49144264  0.54358176  0.59172033    -0.86510
O979        O  0.49468695  0.55031466  0.90800704    -0.86310
O980        O  0.05151234  0.63575057  0.95026721    -0.86680
O981        O  0.04189264  0.63533974  0.55114736    -0.86150
O982        O  0.05165800  0.59826326  0.91002039    -0.87210
O983        O  0.03884686  0.59676787  0.59043304    -0.86370
O984        O  0.13768877  0.54527825  0.95033629    -0.86770
O985        O  0.45575517  0.54638821  0.94680743    -0.86490
O986        O  0.45486258  0.54552237  0.55158105    -0.86140
O987        O  0.13345730  0.54302935  0.55390572    -0.86550
O988        O  0.09780191  0.63387173  0.49932564    -0.86840
O989        O  0.49577433  0.63720654  0.49914913    -0.88180
Zr990      Zr  0.10858713  0.54404185  0.50107426     2.83100
Zr991      Zr  0.48175294  0.54638986  0.49949938     2.83500
Zr992      Zr  0.04775137  0.54642396  0.93505198     2.84090
Zr993      Zr  0.04299703  0.54471619  0.56488210     2.83360
Zr994      Zr  0.04569534  0.60897279  0.49896088     2.84220
O995        O  0.01230989  0.57760164  0.53134573    -1.08750
O996        O  0.07932095  0.57698777  0.96913023    -1.08250
C997        C  0.12676287  0.62419941  0.50296220     1.06400
C998        C  0.46654822  0.62853538  0.49727816     1.09020
C999        C  0.12966685  0.54481698  0.92029290     1.06580
C1000       C  0.12363327  0.54394750  0.58352265     1.06940
C1001       C  0.46240752  0.54392086  0.58165855     1.06520
C1002       C  0.46523895  0.54912771  0.91717222     1.06070
C1003       C  0.05256958  0.62701952  0.92037183     1.06500
C1004       C  0.03915810  0.62599279  0.58081794     1.06010
H1005       H  0.00305316  0.59246115  0.95457517     0.32690
O1006       O  0.01558197  0.57851579  0.96810052    -1.29850
H1007       H  0.08884438  0.58970311  0.54707734     0.32710
O1008       O  0.07615058  0.57665131  0.53314897    -1.31240
C1009       C  0.02816522  0.92837589  0.62374229    -0.02040
C1010       C  0.05348043  0.93549856  0.60269157     0.07650
C1011       C  0.08234053  0.91831164  0.60494836    -0.02150
C1012       C  0.08688297  0.89620052  0.63007739    -0.02150
C1013       C  0.06180219  0.88969355  0.65157177     0.07780
C1014       C  0.03206920  0.90506574  0.64771198    -0.02350
Br1015     Br  0.47140793  0.90341878  0.66898553    -0.00900
Br1016     Br  0.47594605  0.95701376  0.61062542    -0.00970
Br1017     Br  0.12751364  0.87544343  0.63570384    -0.00930
Br1018     Br  0.11560663  0.92462323  0.57361094    -0.00910
C1019       C  0.01317255  0.67488609  0.60411601    -0.02040
C1020       C  0.03668364  0.65078022  0.60597707     0.07650
C1021       C  0.05828169  0.65061064  0.63187724    -0.02150
C1022       C  0.05660851  0.67441980  0.65551941    -0.02150
C1023       C  0.03259533  0.69811278  0.65410864     0.07780
C1024       C  0.01080176  0.69814908  0.62841091    -0.02350
Br1025     Br  0.97719775  0.72958405  0.62692934    -0.00900
Br1026     Br  0.98378539  0.67611604  0.56860848    -0.00970
Br1027     Br  0.08911473  0.67558340  0.68839005    -0.00930
Br1028     Br  0.09182767  0.61904080  0.63392249    -0.00910
C1029       C  0.00750964  0.92954952  0.88466459    -0.02040
C1030       C  0.03717390  0.94292143  0.89205986     0.07650
C1031       C  0.06471401  0.93293009  0.87548494    -0.02150
C1032       C  0.06301210  0.90812896  0.85309890    -0.02150
C1033       C  0.03328999  0.89508471  0.84512450     0.07780
C1034       C  0.00545412  0.90622505  0.86048140    -0.02350
Br1035     Br  0.96477029  0.89002062  0.84780539    -0.00900
Br1036     Br  0.96979824  0.94350612  0.90738683    -0.00970
Br1037     Br  0.10179699  0.89105976  0.83455928    -0.00930
Br1038     Br  0.10471603  0.95359091  0.88313831    -0.00910
C1039       C  0.02718447  0.68155363  0.85305501    -0.02040
C1040       C  0.05447038  0.70040887  0.84895683     0.07650
C1041       C  0.08128103  0.69523867  0.86848450    -0.02150
C1042       C  0.08049004  0.67168899  0.89268896    -0.02150
C1043       C  0.05368044  0.65204184  0.89573212     0.07780
C1044       C  0.02739375  0.65644391  0.87528183    -0.02350
Br1045     Br  0.48825053  0.62999456  0.87259511    -0.00900
Br1046     Br  0.49157784  0.69053756  0.82005904    -0.00770
Br1047     Br  0.11636706  0.66577074  0.92099575    -0.00930
Br1048     Br  0.11918717  0.71963145  0.86128091    -0.00910
C1049       C  0.44039579  0.53473329  0.63906439    -0.02040
C1050       C  0.43550797  0.54303333  0.60600033     0.07650
C1051       C  0.40384392  0.55092440  0.59657854    -0.02150
C1052       C  0.38100371  0.55902327  0.62020242    -0.02150
C1053       C  0.38576501  0.55019958  0.65289706     0.07780
C1054       C  0.41440462  0.53419916  0.66077372    -0.02350
Br1055     Br  0.41736725  0.50833533  0.69947560    -0.00900
Br1056     Br  0.48174391  0.52467410  0.65681057    -0.00970
Br1057     Br  0.34547043  0.58530561  0.60674297    -0.00930
Br1058     Br  0.38890927  0.54830862  0.55234893    -0.00910
C1059       C  0.17963385  0.51660617  0.64939659    -0.02040
C1060       C  0.19973428  0.54315513  0.65272601     0.07650
C1061       C  0.19402626  0.57031421  0.63305347    -0.02150
C1062       C  0.16980977  0.57000142  0.60972413    -0.02150
C1063       C  0.14854235  0.54448341  0.60850207     0.07780
C1064       C  0.15265110  0.51859215  0.62959502    -0.02350
Br1065     Br  0.12084844  0.48625641  0.63228685    -0.00900
Br1066     Br  0.19006743  0.47621888  0.66913094    -0.00970
Br1067     Br  0.16460007  0.60558626  0.58060369    -0.00930
Br1068     Br  0.21692136  0.60940544  0.63904721    -0.00910
C1069       C  0.18438903  0.56483916  0.84952905    -0.02040
C1070       C  0.20682469  0.53970135  0.85111773     0.07650
C1071       C  0.20451954  0.51720647  0.87639579    -0.02150
C1072       C  0.17967856  0.51937145  0.89926359    -0.02150
C1073       C  0.15606285  0.54325979  0.89638227     0.07780
C1074       C  0.15845911  0.56588098  0.87127229    -0.02350
Br1075     Br  0.12627286  0.59834599  0.86632023    -0.00900
Br1076     Br  0.18974132  0.59869704  0.81836331    -0.00970
Br1077     Br  0.17697164  0.48772144  0.93306250    -0.00930
Br1078     Br  0.23386863  0.48171578  0.87863461    -0.00910
C1079       C  0.44358612  0.53415225  0.86256514    -0.02040
C1080       C  0.44019124  0.55112062  0.89190012     0.07650
C1081       C  0.41220610  0.56952143  0.89722981    -0.02150
C1082       C  0.38772768  0.57000857  0.87412247    -0.02150
C1083       C  0.39109527  0.55265013  0.84534691     0.07780
C1084       C  0.41905375  0.53479962  0.83959635    -0.02350
Br1085     Br  0.42321652  0.50996271  0.80051997    -0.00900
Br1086     Br  0.48113960  0.50889399  0.85349947    -0.00970
Br1087     Br  0.34978022  0.59517238  0.88134091    -0.00930
Br1088     Br  0.40766014  0.59610694  0.93495664    -0.00910
C1089       C  0.19994859  0.91594934  0.51938100    -0.02040
C1090       C  0.19864129  0.89046551  0.49728462     0.07650
C1091       C  0.17177775  0.88902647  0.97755789    -0.02150
C1092       C  0.14659266  0.91116067  0.97955053    -0.02150
C1093       C  0.15090955  0.93816509  0.49721738     0.07780
C1094       C  0.17709398  0.94037876  0.51833541    -0.02350
Br1095     Br  0.18118424  0.97563699  0.54788425    -0.00900
Br1096     Br  0.23148507  0.91653073  0.55332940    -0.00970
Br1097     Br  0.10970117  0.90491928  0.95292615    -0.00930
Br1098     Br  0.17152537  0.85711016  0.94413906    -0.00910
C1099       C  0.20729570  0.66656174  0.99283213    -0.02040
C1100       C  0.20142466  0.69547855  0.50806207     0.07650
C1101       C  0.16861890  0.70328529  0.51284121    -0.02150
C1102       C  0.14574924  0.67941960  0.51577109    -0.02150
C1103       C  0.15237912  0.64854800  0.50443483     0.07780
C1104       C  0.18377878  0.64275948  0.99197268    -0.02350
Br1105     Br  0.19267368  0.60391378  0.96831966    -0.00900
Br1106     Br  0.24450902  0.65893525  0.96575987    -0.00970
Br1107     Br  0.10550585  0.69050824  0.53600211    -0.00930
Br1108     Br  0.15086216  0.74480621  0.50306145    -0.00910
C1109       C  0.41954851  0.69881905  0.96271971    -0.02040
C1110       C  0.39346204  0.69976622  0.48348452     0.07650
C1111       C  0.39208759  0.67862629  0.51026056    -0.02150
C1112       C  0.41590925  0.65540600  0.51462587    -0.02150
C1113       C  0.44219676  0.65396721  0.49345662     0.07780
C1114       C  0.44441765  0.67692744  0.96833043    -0.02350
Br1115     Br  0.48211521  0.67929227  0.94188851    -0.00900
Br1116     Br  0.42092564  0.72581476  0.92485898    -0.00970
Br1117     Br  0.41411605  0.62765776  0.55176263    -0.00930
Br1118     Br  0.35916046  0.68257166  0.54299829    -0.00910
C1119       C  0.38790933  0.92002673  0.98767041    -0.02040
C1120       C  0.39163651  0.89357314  0.50951351     0.07650
C1121       C  0.41943227  0.89115248  0.52810410    -0.02150
C1122       C  0.44394887  0.91330683  0.52390981    -0.02150
C1123       C  0.43949203  0.94025796  0.50364544     0.07780
C1124       C  0.41135132  0.94356607  0.98545865    -0.02350
Br1125     Br  0.40561786  0.97824981  0.95512778    -0.00900
Br1126     Br  0.35219741  0.92230426  0.95843635    -0.00970
Br1127     Br  0.48378463  0.90495330  0.54532545    -0.00930
Br1128     Br  0.42344992  0.85817783  0.56051382    -0.00910
C1129       C  0.86822576  0.36723735  0.51014366     0.02940
C1130       C  0.87748117  0.33570531  0.50164435    -0.13210
C1131       C  0.85423332  0.31504747  0.49028659     0.00440
C1132       C  0.82434816  0.33001765  0.98242440    -0.11730
C1133       C  0.81267199  0.35457610  0.00169031     0.02930
C1134       C  0.83514479  0.37508233  0.01482703    -0.11150
H1135       H  0.90200420  0.32787506  0.50272751     0.08530
H1136       H  0.80826027  0.31734408  0.96764398     0.06060
H1137       H  0.82748792  0.39667896  0.02675124     0.05900
C1138       C  0.86881237  0.22607289  0.98011374     0.02940
C1139       C  0.87744871  0.25738548  0.48334297    -0.13210
C1140       C  0.85444660  0.27943508  0.49370302     0.00440
C1141       C  0.82667383  0.26781384  0.00514813    -0.11730
C1142       C  0.81406401  0.24017557  0.99287497     0.02930
C1143       C  0.83593271  0.21797075  0.98058301    -0.11150
H1144       H  0.90158975  0.26498961  0.47901367     0.08530
H1145       H  0.81210427  0.28217897  0.01982083     0.06060
H1146       H  0.82825812  0.19428923  0.97459710     0.05900
C1147       C  0.72678357  0.22147130  0.01154387     0.02940
C1148       C  0.75970384  0.21516781  0.00597165    -0.13210
C1149       C  0.77843263  0.23908084  0.99217112     0.00440
C1150       C  0.76279963  0.26785598  0.98551525    -0.11730
C1151       C  0.73855295  0.27782696  0.00634531     0.02930
C1152       C  0.71978421  0.25371105  0.01984521    -0.11150
H1153       H  0.77055089  0.19289394  0.01295300     0.08530
H1154       H  0.77391809  0.28488261  0.97026642     0.06060
H1155       H  0.70101896  0.25993612  0.03658958     0.05900
C1156       C  0.72296160  0.36576348  0.00000554     0.02940
C1157       C  0.75541724  0.37420351  0.99836013    -0.13210
C1158       C  0.77824796  0.35334311  0.01086592     0.00440
C1159       C  0.76715427  0.32536004  0.02542692    -0.11730
C1160       C  0.73820614  0.31222395  0.01574061     0.02930
C1161       C  0.71477801  0.33360007  0.00533090    -0.11150
H1162       H  0.76246610  0.39716020  0.98906800     0.08530
H1163       H  0.78237352  0.31210105  0.04121101     0.06060
H1164       H  0.69075197  0.32543127  0.00180818     0.05900
C1165       C  0.86549178  0.05357808  0.32160938     0.02940
C1166       C  0.83668466  0.03699456  0.32670417    -0.13210
C1167       C  0.81641788  0.03130389  0.30045352     0.00440
C1168       C  0.82728615  0.04086884  0.26973512    -0.11730
C1169       C  0.85111239  0.06347593  0.26578373     0.02930
C1170       C  0.87123286  0.06906157  0.29176808    -0.11150
H1171       H  0.83077380  0.02783452  0.35048703     0.08530
H1172       H  0.81516835  0.03374101  0.24824552     0.06060
H1173       H  0.89167295  0.08421698  0.28862872     0.05900
C1174       C  0.72902718  0.03416675  0.32436104     0.02940
C1175       C  0.76239110  0.03190367  0.32907539    -0.13210
C1176       C  0.78228513  0.02078167  0.30375399     0.00440
C1177       C  0.76695379  0.00884526  0.27620264    -0.11730
C1178       C  0.73723794  0.02177757  0.26780178     0.02930
C1179       C  0.71701685  0.03109120  0.29281008    -0.11150
H1180       H  0.77252525  0.03978981  0.35162696     0.08530
H1181       H  0.78098625  0.99824247  0.25699031     0.06060
H1182       H  0.69269941  0.03768170  0.28735854     0.05900
C1183       C  0.72467951  0.04310312  0.17953382     0.02940
C1184       C  0.71615241  0.03349904  0.21130321    -0.13210
C1185       C  0.73665493  0.03955963  0.23674703     0.00440
C1186       C  0.76150814  0.06047221  0.23144938    -0.11730
C1187       C  0.77421668  0.06504263  0.20037179     0.02930
C1188       C  0.75564144  0.05529858  0.17406458    -0.11150
H1189       H  0.69392989  0.02180578  0.21645138     0.08530
H1190       H  0.77376591  0.06841322  0.25265908     0.06060
H1191       H  0.76435446  0.05871352  0.14960195     0.05900
C1192       C  0.86271906  0.06081425  0.18017104     0.02940
C1193       C  0.87373013  0.07075877  0.21075396    -0.13210
C1194       C  0.85206680  0.08092813  0.23429788     0.00440
C1195       C  0.82234224  0.09136101  0.22321704    -0.11730
C1196       C  0.80846739  0.07460383  0.19753500     0.02930
C1197       C  0.82938377  0.05937096  0.17561288    -0.11150
H1198       H  0.89851011  0.06888408  0.21720212     0.08530
H1199       H  0.80728876  0.10395098  0.24026369     0.06060
H1200       H  0.81999445  0.04576825  0.15576879     0.05900
C1201       C  0.55766502  0.22531822  0.32146479     0.02940
C1202       C  0.55407130  0.25684267  0.33217064    -0.13210
C1203       C  0.56534118  0.28155538  0.31272181     0.00440
C1204       C  0.58346290  0.27327113  0.28534553    -0.11730
C1205       C  0.57592705  0.24502802  0.26893020     0.02930
C1206       C  0.56557841  0.21961265  0.28862368    -0.11150
H1207       H  0.54215580  0.26196130  0.35489690     0.08530
H1208       H  0.59553645  0.29224916  0.27282067     0.06060
H1209       H  0.56293514  0.19606505  0.27881069     0.05900
C1210       C  0.53897946  0.36797676  0.31894208     0.02940
C1211       C  0.55130183  0.33831030  0.32903438    -0.13210
C1212       C  0.54696185  0.31170971  0.30965029     0.00440
C1213       C  0.52865581  0.31476670  0.28175962    -0.11730
C1214       C  0.52152283  0.34449327  0.26783794     0.02930
C1215       C  0.52587051  0.37137869  0.28753689    -0.11150
H1216       H  0.56432954  0.33614715  0.35146223     0.08530
H1217       H  0.52464907  0.29309883  0.26886048     0.06060
H1218       H  0.51928373  0.39472295  0.27876198     0.05900
C1219       C  0.55175268  0.22339892  0.18134509     0.02940
C1220       C  0.56323402  0.21966541  0.21350760    -0.13210
C1221       C  0.56987124  0.24644730  0.23275715     0.00440
C1222       C  0.56436566  0.27638364  0.21855840    -0.11730
C1223       C  0.54674361  0.28007427  0.19035601     0.02930
C1224       C  0.54255045  0.25394657  0.17047148    -0.11150
H1225       H  0.56712757  0.19606553  0.22310384     0.08530
H1226       H  0.56882412  0.29796985  0.23143054     0.06060
H1227       H  0.53147140  0.25731713  0.14713794     0.05900
C1228       C  0.53544851  0.36633454  0.17946151     0.02940
C1229       C  0.53891394  0.33493210  0.16835008    -0.13210
C1230       C  0.52805462  0.31002372  0.18763411     0.00440
C1231       C  0.50957879  0.31774933  0.21492639    -0.11730
C1232       C  0.51632005  0.34600874  0.23158817     0.02930
C1233       C  0.52724705  0.37154291  0.21238746    -0.11150
H1234       H  0.55048197  0.32991087  0.14542569     0.08530
H1235       H  0.49780149  0.29846150  0.22726620     0.06060
H1236       H  0.53003471  0.39488912  0.22266838     0.05900
O1237       O  0.95572978  0.49492128  0.00164088    -0.86680
O1238       O  0.63578822  0.49264799  0.99990129    -0.86840
O1239       O  0.54396609  0.45658782  0.44504408    -0.88510
O1240       O  0.54484047  0.45405139  0.05073613    -0.87270
O1241       O  0.54364541  0.49179932  0.09076381    -0.86860
O1242       O  0.54555147  0.49584759  0.40633901    -0.88230
O1243       O  0.59687033  0.45504154  0.99970168    -0.86710
O1244       O  0.99365816  0.45576316  0.99837083    -0.86290
Zr1245     Zr  0.54502188  0.48130320  0.99848334     2.84310
O1246       O  0.57649837  0.01184515  0.03286914    -1.08270
O1247       O  0.51326596  0.01432447  0.46622076    -1.09000
C1248       C  0.96462043  0.46543665  0.00079146     1.06430
C1249       C  0.62625929  0.46355775  0.99967127     1.06370
C1250       C  0.54432287  0.46656371  0.41538469     1.09360
C1251       C  0.54401846  0.46286131  0.08063470     1.07140
H1252       H  0.59121133  0.99964641  0.45343697     0.32690
O1253       O  0.57781073  0.01288388  0.46691699    -1.29220
H1254       H  0.49928982  0.99964810  0.04544725     0.32370
O1255       O  0.51288645  0.01322034  0.03194792    -1.30900
O1256       O  0.63589135  0.09465680  0.00532642    -0.86670
O1257       O  0.95646444  0.10058505  0.99848108    -0.88170
O1258       O  0.59964775  0.04523527  0.40926661    -0.86750
O1259       O  0.59621509  0.04282347  0.09258846    -0.86800
O1260       O  0.99122522  0.04466477  0.09260022    -0.86510
O1261       O  0.99461698  0.05057797  0.40828406    -0.86310
O1262       O  0.54819491  0.13547222  0.44816042    -0.86680
O1263       O  0.54533652  0.13430571  0.05478906    -0.86150
O1264       O  0.54792664  0.09779246  0.40813659    -0.87210
O1265       O  0.54422414  0.09500918  0.09353072    -0.86370
O1266       O  0.63665268  0.04565291  0.44979354    -0.86770
O1267       O  0.95589777  0.04606097  0.44724435    -0.86490
O1268       O  0.95446225  0.04690355  0.05264563    -0.86140
O1269       O  0.63489408  0.04177276  0.05313245    -0.86550
O1270       O  0.59855672  0.13394360  0.00079555    -0.86840
O1271       O  0.99560023  0.13812578  0.99963317    -0.88180
Zr1272     Zr  0.60909860  0.04396199  0.00103250     2.83100
Zr1273     Zr  0.98098104  0.04747794  0.00041294     2.83500
Zr1274     Zr  0.54658951  0.04636832  0.43458623     2.84090
Zr1275     Zr  0.54430320  0.04405885  0.06583263     2.83360
Zr1276     Zr  0.54643665  0.10934389  0.00115009     2.84220
O1277       O  0.51314138  0.07765071  0.03330513    -1.08750
O1278       O  0.57837420  0.07730771  0.46818191    -1.08250
C1279       C  0.62752747  0.12411169  0.00374085     1.06400
C1280       C  0.96631591  0.12961353  0.99784955     1.09020
C1281       C  0.62858492  0.04514022  0.41978637     1.06580
C1282       C  0.62553363  0.04217510  0.08286601     1.06940
C1283       C  0.96215690  0.04516712  0.08266888     1.06520
C1284       C  0.96523393  0.04914065  0.41760021     1.06070
C1285       C  0.54848276  0.12667258  0.41817607     1.06500
C1286       C  0.54485372  0.12435603  0.08449021     1.06010
H1287       H  0.50160826  0.09200034  0.45425365     0.32690
O1288       O  0.51441660  0.07827737  0.46773765    -1.29850
H1289       H  0.59037731  0.08881138  0.04791878     0.32710
O1290       O  0.57723628  0.07615415  0.03404606    -1.31240
C1291       C  0.51373436  0.43387804  0.12306406    -0.02040
C1292       C  0.54223989  0.43790390  0.10558436     0.07650
C1293       C  0.56881784  0.41854852  0.11249630    -0.02150
C1294       C  0.56770616  0.39711731  0.13871576    -0.02150
C1295       C  0.53908151  0.39295137  0.15623188     0.07780
C1296       C  0.51198358  0.41117722  0.14795792    -0.02350
Br1297     Br  0.97152808  0.40319600  0.16909897    -0.00900
Br1298     Br  0.97605384  0.45660245  0.11056193    -0.00970
Br1299     Br  0.60565427  0.37427796  0.15119342    -0.00930
Br1300     Br  0.60595274  0.41994085  0.08487020    -0.00910
C1301       C  0.51951178  0.16851027  0.11627656    -0.02040
C1302       C  0.54579945  0.14847076  0.11043961     0.07650
C1303       C  0.57303133  0.15119376  0.12979135    -0.02150
C1304       C  0.57522416  0.17563240  0.15277674    -0.02150
C1305       C  0.54876839  0.19577586  0.15896679     0.07780
C1306       C  0.52031903  0.19089818  0.14150175    -0.02350
Br1307     Br  0.48155951  0.21315754  0.15312237    -0.00900
Br1308     Br  0.48216099  0.16489617  0.08991098    -0.00970
Br1309     Br  0.61565317  0.18251089  0.17343019    -0.00930
Br1310     Br  0.60779504  0.12173828  0.12433988    -0.00910
C1311       C  0.51387635  0.42734370  0.38311054    -0.02040
C1312       C  0.54282653  0.44249042  0.38958906     0.07650
C1313       C  0.57014321  0.43476696  0.37119351    -0.02150
C1314       C  0.56899506  0.41047513  0.34790989    -0.02150
C1315       C  0.54005077  0.39519833  0.34151532     0.07780
C1316       C  0.51233229  0.40428741  0.35863426    -0.02350
Br1317     Br  0.47233845  0.38446472  0.34916391    -0.00900
Br1318     Br  0.47625681  0.43839032  0.40772793    -0.00970
Br1319     Br  0.60708247  0.39788532  0.32494628    -0.00930
Br1320     Br  0.60913642  0.45740860  0.37799024    -0.00910
C1321       C  0.52713672  0.18086672  0.34769720    -0.02040
C1322       C  0.55490432  0.19909045  0.34512020     0.07650
C1323       C  0.58045358  0.19328090  0.36628651    -0.02150
C1324       C  0.57778900  0.17038887  0.39089509    -0.02150
C1325       C  0.55032571  0.15166890  0.39316832     0.07780
C1326       C  0.52528019  0.15636566  0.37095848    -0.02350
Br1327     Br  0.98801083  0.13019365  0.37329685    -0.00900
Br1328     Br  0.99153108  0.19042748  0.32042877    -0.00770
Br1329     Br  0.61231842  0.16412441  0.42091724    -0.00930
Br1330     Br  0.61963964  0.21626358  0.36094978    -0.00910
C1331       C  0.94044089  0.03593065  0.14013770    -0.02040
C1332       C  0.93539276  0.04424726  0.10710215     0.07650
C1333       C  0.90369006  0.05208050  0.09778478    -0.02150
C1334       C  0.88094107  0.06010086  0.12148989    -0.02150
C1335       C  0.88584286  0.05120266  0.15413650     0.07780
C1336       C  0.91453592  0.03529102  0.16192568    -0.02350
Br1337     Br  0.91769170  0.00944001  0.20061576    -0.00900
Br1338     Br  0.98188111  0.02603282  0.15776153    -0.00970
Br1339     Br  0.84533528  0.08638987  0.10820789    -0.00930
Br1340     Br  0.88856439  0.04949292  0.05361343    -0.00910
C1341       C  0.68052486  0.01532996  0.14994257    -0.02040
C1342       C  0.70094507  0.04167844  0.15287444     0.07650
C1343       C  0.69636839  0.06806540  0.13190631    -0.02150
C1344       C  0.67335862  0.06689155  0.10747588    -0.02150
C1345       C  0.65084125  0.04235771  0.10744055     0.07780
C1346       C  0.65383605  0.01725756  0.12973223    -0.02350
Br1347     Br  0.62144826  0.98551380  0.13297538    -0.00900
Br1348     Br  0.69019746  0.97522357  0.17064146    -0.00970
Br1349     Br  0.67244018  0.09974633  0.07477585    -0.00930
Br1350     Br  0.71859172  0.10760612  0.13776471    -0.00910
C1351       C  0.68382956  0.06514754  0.34950966    -0.02040
C1352       C  0.70634702  0.04010559  0.35142859     0.07650
C1353       C  0.70381754  0.01759594  0.37664529    -0.02150
C1354       C  0.67868805  0.01966618  0.39916158    -0.02150
C1355       C  0.65502402  0.04347782  0.39597234     0.07780
C1356       C  0.65761296  0.06608309  0.37088266    -0.02350
Br1357     Br  0.62529863  0.09833507  0.36542930    -0.00900
Br1358     Br  0.68942854  0.09897346  0.31835535    -0.00970
Br1359     Br  0.67571464  0.98797948  0.43289047    -0.00930
Br1360     Br  0.73327150  0.98220572  0.37924311    -0.00910
C1361       C  0.94340071  0.03444849  0.36304632    -0.02040
C1362       C  0.94008209  0.05122592  0.39249650     0.07650
C1363       C  0.91207517  0.06950231  0.39810974    -0.02150
C1364       C  0.88749934  0.07007745  0.37513400    -0.02150
C1365       C  0.89078122  0.05287642  0.34626250     0.07780
C1366       C  0.91873541  0.03510927  0.34025248    -0.02350
Br1367     Br  0.92272060  0.01041368  0.30106074    -0.00900
Br1368     Br  0.98105724  0.00950043  0.35353897    -0.00970
Br1369     Br  0.84954768  0.09515514  0.38265143    -0.00930
Br1370     Br  0.90762651  0.09581105  0.43603969    -0.00910
C1371       C  0.69857965  0.41513390  0.02245523    -0.02040
C1372       C  0.69821669  0.39076125  0.99905733     0.07650
C1373       C  0.67334649  0.38944241  0.47623162    -0.02150
C1374       C  0.64848363  0.41195690  0.47767144    -0.02150
C1375       C  0.65054059  0.43805684  0.99971499     0.07780
C1376       C  0.67525822  0.43906799  0.02221023    -0.02350
Br1377     Br  0.67657516  0.47229743  0.05438184    -0.00900
Br1378     Br  0.72993067  0.41532988  0.05645666    -0.00970
Br1379     Br  0.61305418  0.40765586  0.44867228    -0.00930
Br1380     Br  0.67374940  0.35793594  0.44241424    -0.00910
C1381       C  0.70685167  0.16608208  0.49266819    -0.02040
C1382       C  0.70118777  0.19625731  0.00768103     0.07650
C1383       C  0.66860007  0.20329234  0.01447612    -0.02150
C1384       C  0.64639103  0.17890442  0.01780191    -0.02150
C1385       C  0.65305223  0.14848979  0.00525548     0.07780
C1386       C  0.68295600  0.14268727  0.49131152    -0.02350
Br1387     Br  0.69156872  0.10377742  0.46763315    -0.00900
Br1388     Br  0.74473741  0.15740692  0.46691578    -0.00970
Br1389     Br  0.60705414  0.18857468  0.04048093    -0.00930
Br1390     Br  0.64957251  0.24458910  0.00641745    -0.00910
C1391       C  0.91951861  0.19795410  0.46323430    -0.02040
C1392       C  0.89338062  0.20078241  0.98362983     0.07650
C1393       C  0.89197633  0.17982427  0.01054916    -0.02150
C1394       C  0.91577845  0.15663536  0.01507558    -0.02150
C1395       C  0.94209574  0.15511251  0.99395477     0.07780
C1396       C  0.94443050  0.17617348  0.46902484    -0.02350
Br1397     Br  0.98233901  0.17885101  0.44295002    -0.00900
Br1398     Br  0.92103154  0.22495442  0.42537447    -0.00970
Br1399     Br  0.91385695  0.12898791  0.05229933    -0.00930
Br1400     Br  0.85903587  0.18398054  0.04324890    -0.00910
C1401       C  0.88805569  0.41883711  0.48769881    -0.02040
C1402       C  0.89155982  0.39435203  0.00954105     0.07650
C1403       C  0.91940930  0.39178803  0.02802205    -0.02150
C1404       C  0.94406509  0.41374891  0.02366039    -0.02150
C1405       C  0.93970386  0.44069947  0.00337231     0.07780
C1406       C  0.91138447  0.44244838  0.48522043    -0.02350
Br1407     Br  0.90540135  0.47687375  0.45462182    -0.00900
Br1408     Br  0.85223389  0.42077168  0.45857834    -0.00970
Br1409     Br  0.98394952  0.40508834  0.04486306    -0.00930
Br1410     Br  0.92331651  0.35887373  0.06051284    -0.00910
C1411       C  0.86796522  0.36835078  0.00960883     0.02940
C1412       C  0.87726968  0.33693981  0.00071714    -0.13210
C1413       C  0.85401446  0.31629459  0.98935572     0.00440
C1414       C  0.82468741  0.32884499  0.48298939    -0.11730
C1415       C  0.81294974  0.35368989  0.50185389     0.02930
C1416       C  0.83540488  0.37415052  0.51506087    -0.11150
H1417       H  0.90182362  0.32917675  0.00158731     0.08530
H1418       H  0.80874231  0.31620542  0.46805224     0.06060
H1419       H  0.82775296  0.39590647  0.52668579     0.05900
C1420       C  0.86866928  0.22473536  0.48123950     0.02940
C1421       C  0.87745211  0.25875462  0.98220017    -0.13210
C1422       C  0.85435518  0.28068017  0.99258103     0.00440
C1423       C  0.82668005  0.26671231  0.50625020    -0.11730
C1424       C  0.81395260  0.23912107  0.49395323     0.02930
C1425       C  0.83574251  0.21679674  0.48171499    -0.11150
H1426       H  0.90156866  0.26646009  0.97792186     0.08530
H1427       H  0.81213940  0.28117822  0.52086968     0.06060
H1428       H  0.82794697  0.19317968  0.47563588     0.05900
C1429       C  0.72623124  0.22125274  0.51160375     0.02940
C1430       C  0.75916581  0.21459034  0.50647356    -0.13210
C1431       C  0.77830434  0.23832317  0.49291951     0.00440
C1432       C  0.76298361  0.26718246  0.48592521    -0.11730
C1433       C  0.73848588  0.27744655  0.50629559     0.02930
C1434       C  0.71937314  0.25356615  0.51965403    -0.11150
H1435       H  0.76958377  0.19201024  0.51314565     0.08530
H1436       H  0.77435633  0.28398903  0.47065618     0.06060
H1437       H  0.70055666  0.26004233  0.53621920     0.05900
C1438       C  0.72318428  0.36553980  0.49969861     0.02940
C1439       C  0.75574890  0.37376130  0.49812467    -0.13210
C1440       C  0.77843656  0.35274640  0.51073237     0.00440
C1441       C  0.76712678  0.32490417  0.52533751    -0.11730
C1442       C  0.73820860  0.31188781  0.51549333     0.02930
C1443       C  0.71489932  0.33335981  0.50495821    -0.11150
H1444       H  0.76297247  0.39666173  0.48884385     0.08530
H1445       H  0.78221080  0.31159850  0.54119628     0.06060
H1446       H  0.69086074  0.32526323  0.50136628     0.05900
C1447       C  0.86567407  0.05398793  0.82124947     0.02940
C1448       C  0.83684993  0.03745425  0.82640976    -0.13210
C1449       C  0.81671691  0.03137825  0.80014841     0.00440
C1450       C  0.82779252  0.04040726  0.76931663    -0.11730
C1451       C  0.85171789  0.06287587  0.76510447     0.02930
C1452       C  0.87159595  0.06898563  0.79116914    -0.11150
H1453       H  0.83081025  0.02862850  0.85029013     0.08530
H1454       H  0.81574142  0.03303285  0.74786839     0.06060
H1455       H  0.89203227  0.08412372  0.78791462     0.05900
C1456       C  0.72927162  0.03452795  0.82404877     0.02940
C1457       C  0.76263817  0.03222241  0.82878856    -0.13210
C1458       C  0.78253016  0.02099447  0.80349957     0.00440
C1459       C  0.76716461  0.00895774  0.77602457    -0.11730
C1460       C  0.73754079  0.02201751  0.76751988     0.02930
C1461       C  0.71730965  0.03149737  0.79246550    -0.11150
H1462       H  0.77276421  0.04010769  0.85134294     0.08530
H1463       H  0.78113348  0.99813769  0.75689564     0.06060
H1464       H  0.69302158  0.03814713  0.78695788     0.05900
C1465       C  0.72491171  0.04294181  0.67915095     0.02940
C1466       C  0.71641566  0.03360335  0.71100908    -0.13210
C1467       C  0.73708313  0.03958226  0.73632867     0.00440
C1468       C  0.76217235  0.06016061  0.73078993    -0.11730
C1469       C  0.77479760  0.06446187  0.69963278     0.02930
C1470       C  0.75598024  0.05481076  0.67346164    -0.11150
H1471       H  0.69409089  0.02216132  0.71630849     0.08530
H1472       H  0.77458547  0.06810000  0.75189960     0.06060
H1473       H  0.76459902  0.05805458  0.64894068     0.05900
C1474       C  0.86326755  0.05934412  0.67925015     0.02940
C1475       C  0.87436843  0.06920550  0.70984887    -0.13210
C1476       C  0.85282297  0.07984112  0.73332783     0.00440
C1477       C  0.82320155  0.09049353  0.72218805    -0.11730
C1478       C  0.80913735  0.07373283  0.69662109     0.02930
C1479       C  0.82989721  0.05826634  0.67469933    -0.11150
H1480       H  0.89911555  0.06699901  0.71633167     0.08530
H1481       H  0.80828204  0.10334538  0.73915428     0.06060
H1482       H  0.82034876  0.04474808  0.65487453     0.05900
C1483       C  0.55779523  0.22534899  0.82142197     0.02940
C1484       C  0.55420807  0.25686298  0.83214160    -0.13210
C1485       C  0.56544809  0.28157903  0.81269020     0.00440
C1486       C  0.58354205  0.27330990  0.78528678    -0.11730
C1487       C  0.57602017  0.24505113  0.76888522     0.02930
C1488       C  0.56569814  0.21963816  0.78858642    -0.11150
H1489       H  0.54230985  0.26197211  0.85487983     0.08530
H1490       H  0.59557908  0.29229984  0.77274384     0.06060
H1491       H  0.56306136  0.19608575  0.77878341     0.05900
C1492       C  0.53890184  0.36793840  0.81893976     0.02940
C1493       C  0.55131602  0.33830513  0.82901599    -0.13210
C1494       C  0.54701055  0.31169233  0.80963955     0.00440
C1495       C  0.52864199  0.31469230  0.78178912    -0.11730
C1496       C  0.52141551  0.34439645  0.76788207     0.02930
C1497       C  0.52572839  0.37129713  0.78756319    -0.11150
H1498       H  0.56438718  0.33617752  0.85142052     0.08530
H1499       H  0.52466627  0.29301526  0.76889273     0.06060
H1500       H  0.51907186  0.39462378  0.77879237     0.05900
C1501       C  0.55171086  0.22334928  0.68136536     0.02940
C1502       C  0.56326907  0.21964171  0.71350176    -0.13210
C1503       C  0.56992136  0.24644192  0.73272365     0.00440
C1504       C  0.56435745  0.27636379  0.71852615    -0.11730
C1505       C  0.54666998  0.28001567  0.69036620     0.02930
C1506       C  0.54246585  0.25388251  0.67049854    -0.11150
H1507       H  0.56719857  0.19604924  0.72310161     0.08530
H1508       H  0.56881068  0.29796137  0.73138194     0.06060
H1509       H  0.53133828  0.25723771  0.64718691     0.05900
C1510       C  0.53538998  0.36623183  0.67956314     0.02940
C1511       C  0.53882023  0.33484816  0.66841350    -0.13210
C1512       C  0.52794624  0.30993379  0.68766833     0.00440
C1513       C  0.50948110  0.31763555  0.71497860    -0.11730
C1514       C  0.51620231  0.34589958  0.73164487     0.02930
C1515       C  0.52715375  0.37143179  0.71247057    -0.11150
H1516       H  0.55040240  0.32984393  0.64549171     0.08530
H1517       H  0.49773274  0.29833385  0.72732634     0.06060
H1518       H  0.52995093  0.39477214  0.72276273     0.05900
O1519       O  0.95523510  0.49402751  0.50089271    -0.86680
O1520       O  0.63434975  0.49150502  0.50020052    -0.86840
O1521       O  0.54385057  0.45667950  0.94484534    -0.88510
O1522       O  0.54498908  0.45397222  0.55093270    -0.87270
O1523       O  0.54383500  0.49165589  0.59100993    -0.86860
O1524       O  0.54533028  0.49596275  0.90613488    -0.88230
O1525       O  0.59571532  0.45360726  0.49992261    -0.86710
O1526       O  0.99357202  0.45523797  0.49829702    -0.86290
Zr1527     Zr  0.54496535  0.48123830  0.49868952     2.84310
O1528       O  0.57615944  0.01173099  0.53300615    -1.08270
O1529       O  0.51358035  0.01442986  0.96614660    -1.09000
C1530       C  0.96443151  0.46463630  0.50045375     1.06430
C1531       C  0.62494336  0.46243091  0.50004762     1.06370
C1532       C  0.54414421  0.46667561  0.91519241     1.09360
C1533       C  0.54420307  0.46274108  0.58084273     1.07140
H1534       H  0.59149239  0.99979448  0.95330967     0.32690
O1535       O  0.57809664  0.01302348  0.96680625    -1.29220
H1536       H  0.49917023  0.99985639  0.54526879     0.32370
O1537       O  0.51261424  0.01314276  0.53205578    -1.30900
O1538       O  0.63559543  0.09448791  0.50534006    -0.86670
O1539       O  0.95675777  0.09887597  0.49827432    -0.88170
O1540       O  0.59987636  0.04532491  0.90909636    -0.86750
O1541       O  0.59596139  0.04284843  0.59267384    -0.86800
O1542       O  0.99174767  0.04151560  0.59174827    -0.86510
O1543       O  0.99406173  0.05148332  0.90912515    -0.86310
O1544       O  0.54852226  0.13554768  0.94808640    -0.86680
O1545       O  0.54501483  0.13423090  0.55484149    -0.86150
O1546       O  0.54814200  0.09788395  0.90804569    -0.87210
O1547       O  0.54396672  0.09495822  0.59360672    -0.86370
O1548       O  0.63691970  0.04581310  0.94959058    -0.86770
O1549       O  0.95518098  0.04713767  0.94789059    -0.86490
O1550       O  0.95509777  0.04453369  0.55171987    -0.86140
O1551       O  0.63463141  0.04175079  0.55321556    -0.86550
O1552       O  0.59820075  0.13374711  0.50086087    -0.86840
O1553       O  0.99549560  0.13679715  0.49981661    -0.88180
Zr1554     Zr  0.60876325  0.04381723  0.50116860     2.83100
Zr1555     Zr  0.98185583  0.04589309  0.49957542     2.83500
Zr1556     Zr  0.54683521  0.04646963  0.93446467     2.84090
Zr1557     Zr  0.54399954  0.04400849  0.56593327     2.83360
Zr1558     Zr  0.54605674  0.10923331  0.50122213     2.84220
O1559       O  0.51278104  0.07753040  0.53338196    -1.08750
O1560       O  0.57867828  0.07741396  0.96804195    -1.08250
C1561       C  0.62717913  0.12392873  0.50377288     1.06400
C1562       C  0.96630593  0.12802976  0.49791078     1.09020
C1563       C  0.62882555  0.04527012  0.91958627     1.06580
C1564       C  0.62528685  0.04220455  0.58294982     1.06940
C1565       C  0.96267835  0.04230233  0.58175175     1.06520
C1566       C  0.96464344  0.05011935  0.91825876     1.06070
C1567       C  0.54873972  0.12675271  0.91810340     1.06500
C1568       C  0.54458805  0.12429805  0.58454850     1.06010
H1569       H  0.50193382  0.09215037  0.95417188     0.32690
O1570       O  0.51475152  0.07842595  0.96764734    -1.29850
H1571       H  0.59003610  0.08873198  0.54797669     0.32710
O1572       O  0.57689205  0.07606525  0.53411942    -1.31240
C1573       C  0.51382724  0.43377754  0.62318205    -0.02040
C1574       C  0.54237604  0.43778634  0.60577149     0.07650
C1575       C  0.56894661  0.41845780  0.61275877    -0.02150
C1576       C  0.56776483  0.39701971  0.63895909    -0.02150
C1577       C  0.53908946  0.39285085  0.65638201     0.07780
C1578       C  0.51201111  0.41107465  0.64805638    -0.02350
Br1579     Br  0.97131751  0.40308081  0.66851453    -0.00900
Br1580     Br  0.97556466  0.45692549  0.61037556    -0.00970
Br1581     Br  0.60567204  0.37416067  0.65152531    -0.00930
Br1582     Br  0.60616910  0.41991854  0.58526687    -0.00910
C1583       C  0.51932932  0.16846806  0.61637247    -0.02040
C1584       C  0.54559926  0.14842226  0.61048294     0.07650
C1585       C  0.57287319  0.15114064  0.62977572    -0.02150
C1586       C  0.57511729  0.17557630  0.65275793    -0.02150
C1587       C  0.54867530  0.19571848  0.65900769     0.07780
C1588       C  0.52018855  0.19084585  0.64160272    -0.02350
Br1589     Br  0.48144905  0.21309667  0.65331325    -0.00900
Br1590     Br  0.48193482  0.16488300  0.59006726    -0.00970
Br1591     Br  0.61559063  0.18245232  0.67332326    -0.00930
Br1592     Br  0.60762628  0.12168830  0.62424317    -0.00910
C1593       C  0.51373042  0.42741980  0.88296706    -0.02040
C1594       C  0.54266717  0.44259197  0.88942474     0.07650
C1595       C  0.57000479  0.43483579  0.87107812    -0.02150
C1596       C  0.56888687  0.41048797  0.84785618    -0.02150
C1597       C  0.53995394  0.39518171  0.84148188     0.07780
C1598       C  0.51221664  0.40430136  0.85855327    -0.02350
Br1599     Br  0.47223746  0.38443737  0.84911084    -0.00900
Br1600     Br  0.47608815  0.43852494  0.90752203    -0.00970
Br1601     Br  0.60699516  0.39787618  0.82493873    -0.00930
Br1602     Br  0.60897668  0.45752468  0.87783477    -0.00910
C1603       C  0.52728662  0.18093213  0.84769024    -0.02040
C1604       C  0.55506306  0.19913281  0.84506792     0.07650
C1605       C  0.58064356  0.19332994  0.86619296    -0.02150
C1606       C  0.57800719  0.17045249  0.89080814    -0.02150
C1607       C  0.55054311  0.15174301  0.89311388     0.07780
C1608       C  0.52545584  0.15644313  0.87095684    -0.02350
Br1609     Br  0.98782247  0.13054395  0.87340549    -0.00900
Br1610     Br  0.99127151  0.19087463  0.82063250    -0.00770
Br1611     Br  0.61256569  0.16420473  0.92080191    -0.00930
Br1612     Br  0.61982539  0.21630879  0.86079864    -0.00910
C1613       C  0.94056706  0.03281230  0.63910557    -0.02040
C1614       C  0.93576626  0.04141450  0.60611613     0.07650
C1615       C  0.90421834  0.04990434  0.59682716    -0.02150
C1616       C  0.88158105  0.05830590  0.62054658    -0.02150
C1617       C  0.88630574  0.04936051  0.65321562     0.07780
C1618       C  0.91468625  0.03286834  0.66098870    -0.02350
Br1619     Br  0.91738343  0.00723021  0.69986376    -0.00900
Br1620     Br  0.98170555  0.02150901  0.65644537    -0.00970
Br1621     Br  0.84636800  0.08511918  0.60727384    -0.00930
Br1622     Br  0.88912038  0.04759699  0.55263860    -0.00910
C1623       C  0.68042774  0.01534265  0.64990726    -0.02040
C1624       C  0.70101781  0.04158118  0.65263507     0.07650
C1625       C  0.69645092  0.06794685  0.63164894    -0.02150
C1626       C  0.67326321  0.06686105  0.60738170    -0.02150
C1627       C  0.65063767  0.04241388  0.60749850     0.07780
C1628       C  0.65364403  0.01734230  0.62982568    -0.02350
Br1629     Br  0.62115669  0.98571461  0.63326805    -0.00900
Br1630     Br  0.68997804  0.97527622  0.67074411    -0.00970
Br1631     Br  0.67228128  0.09971100  0.57468133    -0.00930
Br1632     Br  0.71900675  0.10733094  0.63726697    -0.00910
C1633       C  0.68399803  0.06539291  0.84925991    -0.02040
C1634       C  0.70655340  0.04037934  0.85112425     0.07650
C1635       C  0.70404274  0.01782028  0.87630513    -0.02150
C1636       C  0.67892660  0.01983968  0.89885079    -0.02150
C1637       C  0.65524523  0.04364137  0.89572991     0.07780
C1638       C  0.65779259  0.06627127  0.87065769    -0.02350
Br1639     Br  0.62543018  0.09848315  0.86526351    -0.00900
Br1640     Br  0.68954126  0.09928034  0.81816998    -0.00970
Br1641     Br  0.67599026  0.98810192  0.93252859    -0.00930
Br1642     Br  0.73350370  0.98243007  0.87881937    -0.00910
C1643       C  0.94357607  0.03584932  0.86319724    -0.02040
C1644       C  0.93968306  0.05214396  0.89289835     0.07650
C1645       C  0.91137064  0.06998833  0.89839607    -0.02150
C1646       C  0.88704300  0.07050539  0.87512340    -0.02150
C1647       C  0.89082459  0.05361409  0.84609810     0.07780
C1648       C  0.91908428  0.03629918  0.84020813    -0.02350
Br1649     Br  0.92371033  0.01176524  0.80095262    -0.00900
Br1650     Br  0.98186599  0.01197062  0.85338472    -0.00970
Br1651     Br  0.84875645  0.09512090  0.88246345    -0.00930
Br1652     Br  0.90618854  0.09589666  0.93654923    -0.00910
C1653       C  0.69874363  0.41507743  0.52203144    -0.02040
C1654       C  0.69838812  0.39067568  0.49863914     0.07650
C1655       C  0.67319029  0.38957942  0.97658930    -0.02150
C1656       C  0.64858129  0.41244475  0.97775576    -0.02150
C1657       C  0.64972926  0.43730430  0.49995605     0.07780
C1658       C  0.67506794  0.43875131  0.52206419    -0.02350
Br1659     Br  0.67656858  0.47190349  0.55420625    -0.00900
Br1660     Br  0.73029534  0.41524312  0.55592700    -0.00970
Br1661     Br  0.61310419  0.40811555  0.94877520    -0.00930
Br1662     Br  0.67350817  0.35801976  0.94276458    -0.00910
C1663       C  0.70758311  0.16583748  0.99333268    -0.02040
C1664       C  0.70054020  0.19622905  0.50755690     0.07650
C1665       C  0.66803035  0.20312369  0.51479475    -0.02150
C1666       C  0.64594882  0.17863196  0.51810563    -0.02150
C1667       C  0.65263267  0.14833838  0.50526685     0.07780
C1668       C  0.68351492  0.14261001  0.99171136    -0.02350
Br1669     Br  0.69208691  0.10360408  0.96814288    -0.00900
Br1670     Br  0.74606974  0.15618793  0.96889801    -0.00970
Br1671     Br  0.60677064  0.18796515  0.54120588    -0.00930
Br1672     Br  0.64879068  0.24439939  0.50720183    -0.00910
C1673       C  0.91983146  0.19937242  0.96260333    -0.02040
C1674       C  0.89317527  0.19929600  0.48440886     0.07650
C1675       C  0.89185371  0.17810642  0.51114614    -0.02150
C1676       C  0.91565754  0.15483915  0.51539371    -0.02150
C1677       C  0.94189449  0.15342361  0.49416248     0.07780
C1678       C  0.94473929  0.17767064  0.96865935    -0.02350
Br1679     Br  0.98272984  0.18011445  0.94266729    -0.00900
Br1680     Br  0.92148936  0.22615540  0.92459282    -0.00970
Br1681     Br  0.91394193  0.12701564  0.55246539    -0.00930
Br1682     Br  0.85904395  0.18207299  0.54399489    -0.00910
C1683       C  0.88782906  0.42026373  0.98788260    -0.02040
C1684       C  0.89182257  0.39321806  0.50971088     0.07650
C1685       C  0.91964108  0.39096402  0.52827829    -0.02150
C1686       C  0.94419734  0.41300447  0.52374174    -0.02150
C1687       C  0.93973392  0.43972059  0.50316101     0.07780
C1688       C  0.91129570  0.44377597  0.98557566    -0.02350
Br1689     Br  0.90545906  0.47852080  0.95533957    -0.00900
Br1690     Br  0.85184824  0.42273648  0.95901286    -0.00970
Br1691     Br  0.98406664  0.40482187  0.54516484    -0.00930
Br1692     Br  0.92362769  0.35840727  0.56112712    -0.00910
C1693       C  0.86841062  0.86751527  0.50962585     0.02940
C1694       C  0.87757880  0.83596738  0.50109522    -0.13210
C1695       C  0.85426451  0.81533921  0.48980084     0.00440
C1696       C  0.82482195  0.82939074  0.98284407    -0.11730
C1697       C  0.81286652  0.85403617  0.00184070     0.02930
C1698       C  0.83509692  0.87458133  0.01524438    -0.11150
H1699       H  0.90208981  0.82809185  0.50214186     0.08530
H1700       H  0.80897821  0.81667518  0.96784851     0.06060
H1701       H  0.82722533  0.89617010  0.02704803     0.05900
C1702       C  0.86953932  0.72549508  0.98100988     0.02940
C1703       C  0.87727884  0.75769851  0.48230096    -0.13210
C1704       C  0.85447394  0.77972173  0.49316815     0.00440
C1705       C  0.82709674  0.76720301  0.00577582    -0.11730
C1706       C  0.81459353  0.73954955  0.99339177     0.02930
C1707       C  0.83662801  0.71736619  0.98126495    -0.11150
H1708       H  0.90136393  0.76527411  0.47758226     0.08530
H1709       H  0.81239741  0.78155500  0.02034105     0.06060
H1710       H  0.82901766  0.69370693  0.97511070     0.05900
C1711       C  0.72691765  0.72110897  0.01109879     0.02940
C1712       C  0.75988609  0.71463485  0.00581021    -0.13210
C1713       C  0.77890538  0.73852160  0.99232043     0.00440
C1714       C  0.76339195  0.76732872  0.98545356    -0.11730
C1715       C  0.73883959  0.77739409  0.00588959     0.02930
C1716       C  0.71995240  0.75336057  0.01929117    -0.11150
H1717       H  0.77050200  0.69219619  0.01262231     0.08530
H1718       H  0.77467616  0.78427764  0.97026705     0.06060
H1719       H  0.70111484  0.75967054  0.03591125     0.05900
C1720       C  0.72311885  0.86550560  0.99966103     0.02940
C1721       C  0.75564279  0.87382257  0.99811272    -0.13210
C1722       C  0.77837875  0.85284529  0.01064770     0.00440
C1723       C  0.76719005  0.82491232  0.02514879    -0.11730
C1724       C  0.73835124  0.81181390  0.01521537     0.02930
C1725       C  0.71494392  0.83325803  0.00477188    -0.11150
H1726       H  0.76280101  0.89678151  0.98892785     0.08530
H1727       H  0.78231088  0.81161614  0.04098650     0.06060
H1728       H  0.69093625  0.82509294  0.00114463     0.05900
C1729       C  0.86589778  0.55280441  0.32018835     0.02940
C1730       C  0.83695270  0.53653684  0.32550777    -0.13210
C1731       C  0.81650302  0.53096751  0.29939797     0.00440
C1732       C  0.82732338  0.54034637  0.26858731    -0.11730
C1733       C  0.85137448  0.56269606  0.26444131     0.02930
C1734       C  0.87167388  0.56813636  0.29029147    -0.11150
H1735       H  0.83106942  0.52752565  0.34935725     0.08530
H1736       H  0.81507090  0.53324222  0.24717500     0.06060
H1737       H  0.89224938  0.58308511  0.28701758     0.05900
C1738       C  0.72919551  0.53433986  0.32380677     0.02940
C1739       C  0.76258680  0.53189412  0.32836625    -0.13210
C1740       C  0.78231413  0.52067886  0.30293082     0.00440
C1741       C  0.76678814  0.50881401  0.27548323    -0.11730
C1742       C  0.73718079  0.52201349  0.26717996     0.02930
C1743       C  0.71708899  0.53145997  0.29225963    -0.11150
H1744       H  0.77286723  0.53968084  0.35088381     0.08530
H1745       H  0.78065761  0.49806252  0.25623583     0.06060
H1746       H  0.69279662  0.53819728  0.28688053     0.05900
C1747       C  0.72464916  0.54288856  0.17886525     0.02940
C1748       C  0.71609352  0.53357836  0.21070376    -0.13210
C1749       C  0.73665753  0.53969213  0.23606212     0.00440
C1750       C  0.76170728  0.56033889  0.23053846    -0.11730
C1751       C  0.77439868  0.56457852  0.19937956     0.02930
C1752       C  0.75568204  0.55480057  0.17320808    -0.11150
H1753       H  0.69379771  0.52206216  0.21595997     0.08530
H1754       H  0.77406841  0.56832621  0.25166515     0.06060
H1755       H  0.76432577  0.55802397  0.14869241     0.05900
C1756       C  0.86285420  0.55978270  0.17881699     0.02940
C1757       C  0.87397035  0.56972569  0.20936353    -0.13210
C1758       C  0.85240839  0.58007080  0.23291955     0.00440
C1759       C  0.82275800  0.59070496  0.22187135    -0.11730
C1760       C  0.80870220  0.57393255  0.19632051     0.02930
C1761       C  0.82948037  0.55854857  0.17433762    -0.11150
H1762       H  0.89874812  0.56771450  0.21578410     0.08530
H1763       H  0.80784491  0.60347033  0.23890745     0.06060
H1764       H  0.81995463  0.54495445  0.15455854     0.05900
C1765       C  0.55775972  0.72529076  0.32142846     0.02940
C1766       C  0.55419706  0.75680951  0.33215217    -0.13210
C1767       C  0.56543925  0.78152327  0.31269460     0.00440
C1768       C  0.58350888  0.77324099  0.28527837    -0.11730
C1769       C  0.57594777  0.74499487  0.26887192     0.02930
C1770       C  0.56562142  0.71958367  0.28857750    -0.11150
H1771       H  0.54232349  0.76192358  0.35490220     0.08530
H1772       H  0.59556167  0.79222084  0.27273533     0.06060
H1773       H  0.56295884  0.69603707  0.27876749     0.05900
C1774       C  0.53894686  0.86791159  0.31902005     0.02940
C1775       C  0.55134495  0.83825966  0.32907024    -0.13210
C1776       C  0.54703478  0.81166529  0.30966408     0.00440
C1777       C  0.52867686  0.81470567  0.28181082    -0.11730
C1778       C  0.52147880  0.84442523  0.26792147     0.02930
C1779       C  0.52580044  0.87130782  0.28763071    -0.11150
H1780       H  0.56439698  0.83610164  0.35148355     0.08530
H1781       H  0.52467854  0.79304078  0.26890246     0.06060
H1782       H  0.51915865  0.89464469  0.27887681     0.05900
C1783       C  0.55165309  0.72336456  0.18130907     0.02940
C1784       C  0.56318361  0.71962406  0.21345702    -0.13210
C1785       C  0.56984034  0.74640627  0.23270760     0.00440
C1786       C  0.56429801  0.77634137  0.21853000    -0.11730
C1787       C  0.54661939  0.78002961  0.19036946     0.02930
C1788       C  0.54241820  0.75391484  0.17047154    -0.11150
H1789       H  0.56709783  0.69602306  0.22304160     0.08530
H1790       H  0.56877019  0.79792673  0.23139851     0.06060
H1791       H  0.53131203  0.75729963  0.14715376     0.05900
C1792       C  0.53540241  0.86627407  0.17957431     0.02940
C1793       C  0.53880047  0.83488382  0.16842360    -0.13210
C1794       C  0.52792606  0.80997483  0.18768912     0.00440
C1795       C  0.50948761  0.81769433  0.21501288    -0.11730
C1796       C  0.51625273  0.84594707  0.23168143     0.02930
C1797       C  0.52721002  0.87147409  0.21249811    -0.11150
H1798       H  0.55035100  0.82986950  0.14548815     0.08530
H1799       H  0.49772206  0.79840446  0.22736269     0.06060
H1800       H  0.53003770  0.89480870  0.22279464     0.05900
O1801       O  0.95448792  0.99581816  0.00305830    -0.86680
O1802       O  0.63459384  0.99182724  0.00007206    -0.86840
O1803       O  0.54370809  0.95656281  0.44512489    -0.88510
O1804       O  0.54498556  0.95400426  0.05088439    -0.87270
O1805       O  0.54385480  0.99170254  0.09094742    -0.86860
O1806       O  0.54520573  0.99582257  0.40641517    -0.88230
O1807       O  0.59594684  0.95393895  0.99981638    -0.86710
O1808       O  0.99247588  0.95672314  0.00024601    -0.86290
Zr1809     Zr  0.54498565  0.98131199  0.99867027     2.84310
O1810       O  0.57631397  0.51192654  0.03272880    -1.08270
O1811       O  0.51363154  0.51433073  0.46609390    -1.09000
C1812       C  0.96342624  0.96633840  0.00252694     1.06430
C1813       C  0.62518666  0.96275976  0.99991418     1.06370
C1814       C  0.54404447  0.96653479  0.41546412     1.09360
C1815       C  0.54418724  0.96278008  0.08079300     1.07140
H1816       H  0.59157142  0.49964481  0.45339137     0.32690
O1817       O  0.57817380  0.51288365  0.46687331    -1.29220
H1818       H  0.49929454  0.50002218  0.04485169     0.32370
O1819       O  0.51277665  0.51325569  0.03162921    -1.30900
O1820       O  0.63573318  0.59463406  0.00504213    -0.86670
O1821       O  0.95760110  0.59975483  0.99803951    -0.88170
O1822       O  0.60005523  0.54527730  0.40918613    -0.86750
O1823       O  0.59590804  0.54292651  0.09237639    -0.86800
O1824       O  0.99160370  0.54305713  0.09184726    -0.86510
O1825       O  0.99489657  0.54921217  0.40712864    -0.86310
O1826       O  0.54850326  0.63546273  0.44812973    -0.86680
O1827       O  0.54514793  0.63439502  0.05460268    -0.86150
O1828       O  0.54826777  0.59780069  0.40808764    -0.87210
O1829       O  0.54400162  0.59508650  0.09332705    -0.86370
O1830       O  0.63705950  0.54564557  0.44971389    -0.86770
O1831       O  0.95575684  0.54530047  0.44574556    -0.86490
O1832       O  0.95514673  0.54557950  0.05160765    -0.86140
O1833       O  0.63458556  0.54185576  0.05294135    -0.86550
O1834       O  0.59841110  0.63393223  0.00058174    -0.86840
O1835       O  0.99671463  0.63725084  0.99982474    -0.88180
Zr1836     Zr  0.60894048  0.54401453  0.00085985     2.83100
Zr1837     Zr  0.98219970  0.54658644  0.99960041     2.83500
Zr1838     Zr  0.54699821  0.54637860  0.43451649     2.84090
Zr1839     Zr  0.54402199  0.54415298  0.06559489     2.83360
Zr1840     Zr  0.54620044  0.60942490  0.00095408     2.84220
O1841       O  0.51285543  0.57770677  0.03303606    -1.08750
O1842       O  0.57874613  0.57731817  0.46815114    -1.08250
C1843       C  0.62738928  0.62407737  0.00345382     1.06400
C1844       C  0.96741967  0.62881125  0.99777739     1.09020
C1845       C  0.62899811  0.54517596  0.41969210     1.06580
C1846       C  0.62522044  0.54226758  0.08265469     1.06940
C1847       C  0.96260900  0.54365639  0.08169568     1.06520
C1848       C  0.96540820  0.54806397  0.41619440     1.06070
C1849       C  0.54878492  0.62667386  0.41814312     1.06500
C1850       C  0.54466691  0.62443678  0.08430342     1.06010
H1851       H  0.50199219  0.59201155  0.45413861     0.32690
O1852       O  0.51478840  0.57828427  0.46762957    -1.29850
H1853       H  0.59013471  0.58889930  0.04773912     0.32710
O1854       O  0.57700206  0.57623890  0.03386026    -1.31240
C1855       C  0.51383228  0.93386582  0.12322177    -0.02040
C1856       C  0.54235003  0.93782347  0.10573657     0.07650
C1857       C  0.56889415  0.91843357  0.11266236    -0.02150
C1858       C  0.56773642  0.89701179  0.13888135    -0.02150
C1859       C  0.53909503  0.89289480  0.15637913     0.07780
C1860       C  0.51203031  0.91116569  0.14810723    -0.02350
Br1861     Br  0.97108024  0.90357206  0.16945261    -0.00900
Br1862     Br  0.97569607  0.95812299  0.11206425    -0.00970
Br1863     Br  0.60564111  0.87411001  0.15137305    -0.00930
Br1864     Br  0.60604295  0.91978270  0.08505408    -0.00910
C1865       C  0.51937570  0.66858457  0.11615424    -0.02040
C1866       C  0.54564820  0.64853646  0.11027625     0.07650
C1867       C  0.57287827  0.65120605  0.12964304    -0.02150
C1868       C  0.57509030  0.67560825  0.15267111    -0.02150
C1869       C  0.54864744  0.69575743  0.15890297     0.07780
C1870       C  0.52019308  0.69091847  0.14143125    -0.02350
Br1871     Br  0.48143345  0.71314634  0.15311730    -0.00900
Br1872     Br  0.48202761  0.66505563  0.08977503    -0.00970
Br1873     Br  0.61552845  0.68242875  0.17332671    -0.00930
Br1874     Br  0.60760911  0.62171878  0.12416849    -0.00910
C1875       C  0.51369513  0.92725170  0.38317082    -0.02040
C1876       C  0.54261288  0.94244778  0.38967336     0.07650
C1877       C  0.56996350  0.93474628  0.37131951    -0.02150
C1878       C  0.56887743  0.91044375  0.34804143    -0.02150
C1879       C  0.53996288  0.89512330  0.34161580     0.07780
C1880       C  0.51221291  0.90418087  0.35870221    -0.02350
Br1881     Br  0.47225799  0.88429746  0.34919950    -0.00900
Br1882     Br  0.47603746  0.93824278  0.40775584    -0.00970
Br1883     Br  0.60700687  0.89791109  0.32511710    -0.00930
Br1884     Br  0.60891953  0.95743175  0.37816716    -0.00910
C1885       C  0.52727789  0.68085860  0.34772789    -0.02040
C1886       C  0.55504672  0.69906991  0.34508448     0.07650
C1887       C  0.58063810  0.69327265  0.36620034    -0.02150
C1888       C  0.57801921  0.67039656  0.39082422    -0.02150
C1889       C  0.55056499  0.65167407  0.39314838     0.07780
C1890       C  0.52546814  0.65636671  0.37099844    -0.02350
Br1891     Br  0.98909772  0.62818815  0.36955973    -0.00900
Br1892     Br  0.99219346  0.68964650  0.31809603    -0.00770
Br1893     Br  0.61258591  0.66416948  0.42081087    -0.00930
Br1894     Br  0.61981506  0.71625244  0.36077695    -0.00910
C1895       C  0.94053607  0.53436351  0.13904125    -0.02040
C1896       C  0.93567957  0.54269939  0.10597628     0.07650
C1897       C  0.90403550  0.55060243  0.09651514    -0.02150
C1898       C  0.88118329  0.55870783  0.12011669    -0.02150
C1899       C  0.88594171  0.54990473  0.15281651     0.07780
C1900       C  0.91453737  0.53386882  0.16072498    -0.02350
Br1901     Br  0.91742302  0.50805839  0.19946783    -0.00900
Br1902     Br  0.98184376  0.52423790  0.15685866    -0.00970
Br1903     Br  0.84562668  0.58494643  0.10662857    -0.00930
Br1904     Br  0.88915895  0.54797132  0.05226640    -0.00910
C1905       C  0.68028323  0.51528777  0.14954468    -0.02040
C1906       C  0.70083156  0.54154055  0.15233088     0.07650
C1907       C  0.69627976  0.56795229  0.13140649    -0.02150
C1908       C  0.67313757  0.56689068  0.10711679    -0.02150
C1909       C  0.65053744  0.54242941  0.10718705     0.07780
C1910       C  0.65351811  0.51731859  0.12946553    -0.02350
Br1911     Br  0.62101772  0.48570353  0.13286584    -0.00900
Br1912     Br  0.68985221  0.47519699  0.17032572    -0.00970
Br1913     Br  0.67216465  0.59979908  0.07447476    -0.00930
Br1914     Br  0.71876543  0.60736482  0.13714664    -0.00910
C1915       C  0.68406729  0.56528829  0.34923267    -0.02040
C1916       C  0.70660111  0.54024343  0.35100815     0.07650
C1917       C  0.70415637  0.51771587  0.37623414    -0.02150
C1918       C  0.67911600  0.51977651  0.39888062    -0.02150
C1919       C  0.65542783  0.54358108  0.39581672     0.07780
C1920       C  0.65792279  0.56619312  0.37071507    -0.02350
Br1921     Br  0.62555538  0.59841013  0.36537038    -0.00900
Br1922     Br  0.68955685  0.59919457  0.31814802    -0.00970
Br1923     Br  0.67625927  0.48807175  0.43260963    -0.00930
Br1924     Br  0.73358896  0.48230357  0.37867840    -0.00910
C1925       C  0.94358975  0.53316526  0.36173333    -0.02040
C1926       C  0.94043344  0.55027748  0.39097344     0.07650
C1927       C  0.91265681  0.56896984  0.39637245    -0.02150
C1928       C  0.88809977  0.56959004  0.37341944    -0.02150
C1929       C  0.89120599  0.55206470  0.34475762     0.07780
C1930       C  0.91896884  0.53394724  0.33889795    -0.02350
Br1931     Br  0.92273278  0.50897548  0.29988270    -0.00900
Br1932     Br  0.98089179  0.50753273  0.35270031    -0.00970
Br1933     Br  0.85040367  0.59514350  0.38068484    -0.00930
Br1934     Br  0.90844313  0.59572038  0.43398807    -0.00910
C1935       C  0.69875176  0.91506531  0.02205449    -0.02040
C1936       C  0.69832275  0.89065367  0.99866629     0.07650
C1937       C  0.67327202  0.88961534  0.47630223    -0.02150
C1938       C  0.64831622  0.91202702  0.47779200    -0.02150
C1939       C  0.64996006  0.93760844  0.99979092     0.07780
C1940       C  0.67524708  0.93891575  0.02197266    -0.02350
Br1941     Br  0.67683425  0.97205113  0.05412210    -0.00900
Br1942     Br  0.73009371  0.91493744  0.05616060    -0.00970
Br1943     Br  0.61285369  0.90758897  0.44885588    -0.00930
Br1944     Br  0.67370524  0.85806422  0.44252761    -0.00910
C1945       C  0.70682522  0.66660728  0.49236377    -0.02040
C1946       C  0.70120515  0.69604024  0.00717693     0.07650
C1947       C  0.66865541  0.70314561  0.01409194    -0.02150
C1948       C  0.64641395  0.67880191  0.01748349    -0.02150
C1949       C  0.65297013  0.64839756  0.00487516     0.07780
C1950       C  0.68309848  0.64303532  0.49117532    -0.02350
Br1951     Br  0.69181303  0.60420543  0.46741320    -0.00900
Br1952     Br  0.74434825  0.65853044  0.46587286    -0.00970
Br1953     Br  0.60718414  0.68852239  0.04032604    -0.00930
Br1954     Br  0.64964846  0.74442871  0.00590584    -0.00910
C1955       C  0.91863103  0.69793524  0.46095353    -0.02040
C1956       C  0.89423887  0.70017463  0.98425361     0.07650
C1957       C  0.89274836  0.67872434  0.01076762    -0.02150
C1958       C  0.91661242  0.65551071  0.01505265    -0.02150
C1959       C  0.94314138  0.65441632  0.99415715     0.07780
C1960       C  0.94338803  0.67580873  0.46604680    -0.02350
Br1961     Br  0.98040979  0.67753147  0.43856082    -0.00900
Br1962     Br  0.91954710  0.72506398  0.42318062    -0.00970
Br1963     Br  0.91454678  0.62731301  0.05182383    -0.00930
Br1964     Br  0.85959537  0.68223535  0.04331712    -0.00910
C1965       C  0.88847315  0.91911737  0.48735768    -0.02040
C1966       C  0.89128962  0.89422716  0.01047343     0.07650
C1967       C  0.91898405  0.89199830  0.02920589    -0.02150
C1968       C  0.94329684  0.91439085  0.02521905    -0.02150
C1969       C  0.93862557  0.94148186  0.00516555     0.07780
C1970       C  0.91185499  0.94269983  0.48502890    -0.02350
Br1971     Br  0.90604569  0.97725761  0.45456567    -0.00900
Br1972     Br  0.85273392  0.92119679  0.45814706    -0.00970
Br1973     Br  0.98312312  0.90613712  0.04669912    -0.00930
Br1974     Br  0.92312184  0.85895903  0.06154060    -0.00910
C1975       C  0.86796525  0.86799780  0.01035407     0.02940
C1976       C  0.87751551  0.83658279  0.00165580    -0.13210
C1977       C  0.85444976  0.81577002  0.99015108     0.00440
C1978       C  0.82469862  0.82915263  0.48263477    -0.11730
C1979       C  0.81305152  0.85404570  0.50149414     0.02930
C1980       C  0.83559659  0.87449572  0.51459263    -0.11150
H1981       H  0.90209561  0.82894699  0.00276741     0.08530
H1982       H  0.80871137  0.81654483  0.46772140     0.06060
H1983       H  0.82801454  0.89626357  0.52623889     0.05900
C1984       C  0.86840840  0.72509087  0.48013748     0.02940
C1985       C  0.87808094  0.75821471  0.98323285    -0.13210
C1986       C  0.85486454  0.78012175  0.99344036     0.00440
C1987       C  0.82682237  0.76698447  0.50601195    -0.11730
C1988       C  0.81391119  0.73944288  0.49374412     0.02930
C1989       C  0.83549815  0.71717571  0.48107507    -0.11150
H1990       H  0.90220047  0.76598770  0.97912939     0.08530
H1991       H  0.81246202  0.78142503  0.52085763     0.06060
H1992       H  0.82759318  0.69360154  0.47497230     0.05900
C1993       C  0.72616903  0.72165290  0.51158346     0.02940
C1994       C  0.75910027  0.71495747  0.50641990    -0.13210
C1995       C  0.77826373  0.73871358  0.49293464     0.00440
C1996       C  0.76298783  0.76758640  0.48600898    -0.11730
C1997       C  0.73851728  0.77784382  0.50638637     0.02930
C1998       C  0.71933774  0.75397191  0.51966735    -0.11150
H1999       H  0.76945216  0.69227266  0.51283956     0.08530
H2000       H  0.77435226  0.78438811  0.47074339     0.06060
H2001       H  0.70056747  0.76046731  0.53626721     0.05900
C2002       C  0.72322257  0.86588894  0.49970504     0.02940
C2003       C  0.75578825  0.87412520  0.49799407    -0.13210
C2004       C  0.77854913  0.85312396  0.51051745     0.00440
C2005       C  0.76729560  0.82529966  0.52521457    -0.11730
C2006       C  0.73830236  0.81228330  0.51557133     0.02930
C2007       C  0.71495836  0.83373194  0.50509935    -0.11150
H2008       H  0.76296325  0.89701172  0.48863874     0.08530
H2009       H  0.78248361  0.81197072  0.54093981     0.06060
H2010       H  0.69090365  0.82562806  0.50162619     0.05900
C2011       C  0.86667572  0.55349766  0.82098211     0.02940
C2012       C  0.83765545  0.53730766  0.82639574    -0.13210
C2013       C  0.81719624  0.53150380  0.80029275     0.00440
C2014       C  0.82807106  0.54057117  0.76940822    -0.11730
C2015       C  0.85215556  0.56282695  0.76503221     0.02930
C2016       C  0.87245926  0.56851509  0.79087321    -0.11150
H2017       H  0.83171388  0.52853539  0.85032097     0.08530
H2018       H  0.81576673  0.53338585  0.74804958     0.06060
H2019       H  0.89302185  0.58344913  0.78745397     0.05900
C2020       C  0.72971105  0.53480126  0.82442586     0.02940
C2021       C  0.76311045  0.53251472  0.82909686    -0.13210
C2022       C  0.78295287  0.52122614  0.80377891     0.00440
C2023       C  0.76749494  0.50914558  0.77635661    -0.11730
C2024       C  0.73781582  0.52213699  0.76791035     0.02930
C2025       C  0.71766818  0.53165980  0.79289139    -0.11150
H2026       H  0.77329912  0.54043443  0.85160851     0.08530
H2027       H  0.78140665  0.49828287  0.75720894     0.06060
H2028       H  0.69335715  0.53827178  0.78743583     0.05900
C2029       C  0.72486309  0.54312500  0.67954964     0.02940
C2030       C  0.71648540  0.53368165  0.71141840    -0.13210
C2031       C  0.73721252  0.53968481  0.73670532     0.00440
C2032       C  0.76218046  0.56039691  0.73115264    -0.11730
C2033       C  0.77470813  0.56479426  0.69998045     0.02930
C2034       C  0.75587471  0.55510804  0.67383485    -0.11150
H2035       H  0.69421479  0.52215614  0.71675516     0.08530
H2036       H  0.77461806  0.56834253  0.75224662     0.06060
H2037       H  0.76444310  0.55839260  0.64930206     0.05900
C2038       C  0.86300400  0.55990454  0.67900387     0.02940
C2039       C  0.87434620  0.56955626  0.70959183    -0.13210
C2040       C  0.85297582  0.57997943  0.73332848     0.00440
C2041       C  0.82325455  0.59068094  0.72248041    -0.11730
C2042       C  0.80902237  0.57408836  0.69688648     0.02930
C2043       C  0.82962480  0.55876993  0.67473415    -0.11150
H2044       H  0.89915273  0.56740441  0.71584708     0.08530
H2045       H  0.80845723  0.60342304  0.73963729     0.06060
H2046       H  0.81995583  0.54531669  0.65492697     0.05900
C2047       C  0.55786432  0.72541888  0.82131932     0.02940
C2048       C  0.55434144  0.75692650  0.83206526    -0.13210
C2049       C  0.56558881  0.78163780  0.81261932     0.00440
C2050       C  0.58363457  0.77336628  0.78518007    -0.11730
C2051       C  0.57608247  0.74510921  0.76878447     0.02930
C2052       C  0.56574563  0.71970664  0.78848383    -0.11150
H2053       H  0.54246788  0.76203714  0.85481668     0.08530
H2054       H  0.59565450  0.79235463  0.77261593     0.06060
H2055       H  0.56306766  0.69616134  0.77867540     0.05900
C2056       C  0.53897475  0.86797542  0.81896598     0.02940
C2057       C  0.55145059  0.83835181  0.82899547    -0.13210
C2058       C  0.54714455  0.81174658  0.80960763     0.00440
C2059       C  0.52871042  0.81473324  0.78180562    -0.11730
C2060       C  0.52142696  0.84443075  0.76792569     0.02930
C2061       C  0.52574369  0.87133227  0.78761114    -0.11150
H2062       H  0.56455942  0.83622377  0.85137696     0.08530
H2063       H  0.52472452  0.79305589  0.76891273     0.06060
H2064       H  0.51904215  0.89465411  0.77886186     0.05900
C2065       C  0.55169780  0.72338972  0.68129434     0.02940
C2066       C  0.56330509  0.71969153  0.71341350    -0.13210
C2067       C  0.56994146  0.74649676  0.73263460     0.00440
C2068       C  0.56431298  0.77641239  0.71846054    -0.11730
C2069       C  0.54656263  0.78004683  0.69034237     0.02930
C2070       C  0.54236939  0.75391382  0.67046405    -0.11150
H2071       H  0.56729325  0.69610255  0.72299851     0.08530
H2072       H  0.56876735  0.79801007  0.73131693     0.06060
H2073       H  0.53120371  0.75726290  0.64717107     0.05900
C2074       C  0.53528765  0.86625445  0.67960014     0.02940
C2075       C  0.53867637  0.83487668  0.66842736    -0.13210
C2076       C  0.52782231  0.80995922  0.68768655     0.00440
C2077       C  0.50941163  0.81765970  0.71503939    -0.11730
C2078       C  0.51615911  0.84592630  0.73169811     0.02930
C2079       C  0.52709721  0.87145303  0.71251565    -0.11150
H2080       H  0.55022214  0.82987877  0.64548508     0.08530
H2081       H  0.49768660  0.79835650  0.72740866     0.06060
H2082       H  0.52992031  0.89478988  0.72280867     0.05900
O2083       O  0.95575434  0.99416228  0.50144060    -0.86680
O2084       O  0.63403215  0.99154757  0.50029078    -0.86840
O2085       O  0.54394347  0.95663417  0.94503642    -0.88510
O2086       O  0.54473388  0.95397069  0.55099546    -0.87270
O2087       O  0.54366431  0.99166931  0.59106057    -0.86860
O2088       O  0.54537059  0.99590284  0.90632752    -0.88230
O2089       O  0.59544043  0.95361320  0.50000942    -0.86710
O2090       O  0.99401348  0.95531435  0.49807911    -0.86290
Zr2091     Zr  0.54465870  0.98122754  0.49876429     2.84310
O2092       O  0.57643172  0.51175942  0.53294582    -1.08270
O2093       O  0.51352374  0.51443202  0.96598450    -1.09000
C2094       C  0.96488190  0.96477349  0.50056029     1.06430
C2095       C  0.62466280  0.96246507  0.50014977     1.06370
C2096       C  0.54421760  0.96661329  0.91537629     1.09360
C2097       C  0.54400423  0.96275191  0.58089971     1.07140
H2098       H  0.59142268  0.49983812  0.95312128     0.32690
O2099       O  0.57799398  0.51305156  0.96660109    -1.29220
H2100       H  0.49941006  0.49984879  0.54513833     0.32370
O2101       O  0.51287713  0.51313370  0.53194848    -1.30900
O2102       O  0.63593956  0.59453043  0.50533101    -0.86670
O2103       O  0.95608005  0.59881050  0.49624281    -0.88170
O2104       O  0.59983691  0.54542882  0.90893135    -0.86750
O2105       O  0.59614767  0.54280880  0.59266606    -0.86800
O2106       O  0.99047395  0.54375315  0.59058356    -0.86510
O2107       O  0.99587421  0.55078893  0.90839884    -0.86310
O2108       O  0.54830431  0.63563988  0.94791500    -0.86680
O2109       O  0.54521785  0.63420658  0.55479867    -0.86150
O2110       O  0.54805390  0.59796504  0.90787630    -0.87210
O2111       O  0.54412394  0.59493822  0.59356552    -0.86370
O2112       O  0.63678126  0.54581198  0.94949557    -0.86770
O2113       O  0.95673675  0.54675378  0.94698277    -0.86490
O2114       O  0.95393952  0.54525128  0.55039510    -0.86140
O2115       O  0.63488498  0.54169666  0.55326660    -0.86550
O2116       O  0.59848659  0.63375502  0.50092065    -0.86840
O2117       O  0.99497685  0.63661352  0.49600782    -0.88180
Zr2118     Zr  0.60912887  0.54381488  0.50113496     2.83100
Zr2119     Zr  0.98111048  0.54591511  0.49823765     2.83500
Zr2120     Zr  0.54672362  0.54652435  0.93425945     2.84090
Zr2121     Zr  0.54420473  0.54399115  0.56587891     2.83360
Zr2122     Zr  0.54637509  0.60921261  0.50118065     2.84220
O2123       O  0.51304694  0.57752821  0.53329185    -1.08750
O2124       O  0.57850190  0.57751125  0.96785779    -1.08250
C2125       C  0.62747391  0.62396834  0.50382933     1.06400
C2126       C  0.96572549  0.62789505  0.49493892     1.09020
C2127       C  0.62877049  0.54532085  0.91948033     1.06580
C2128       C  0.62549024  0.54215179  0.58299118     1.06940
C2129       C  0.96149759  0.54386467  0.58052237     1.06520
C2130       C  0.96636023  0.54962511  0.91740575     1.06070
C2131       C  0.54859813  0.62683546  0.91793737     1.06500
C2132       C  0.54474515  0.62427799  0.58450561     1.06010
H2133       H  0.50176422  0.59218742  0.95392793     0.32690
O2134       O  0.51456785  0.57846369  0.96741631    -1.29850
H2135       H  0.59029513  0.58868833  0.54796195     0.32710
O2136       O  0.57717285  0.57601976  0.53408457    -1.31240
C2137       C  0.51366724  0.93378379  0.62324791    -0.02040
C2138       C  0.54220673  0.93780598  0.60582848     0.07650
C2139       C  0.56878905  0.91848574  0.61279111    -0.02150
C2140       C  0.56763104  0.89704626  0.63898788    -0.02150
C2141       C  0.53896861  0.89287474  0.65642961     0.07780
C2142       C  0.51187780  0.91108781  0.64812647    -0.02350
Br2143     Br  0.99593975  0.89309230  0.67406358    -0.00900
Br2144     Br  0.98739999  0.94888038  0.61824636    -0.00970
Br2145     Br  0.60554640  0.87417881  0.65151504    -0.00930
Br2146     Br  0.60598367  0.91994309  0.58525882    -0.00910
C2147       C  0.51939288  0.66839464  0.61633813    -0.02040
C2148       C  0.54570826  0.64841147  0.61043527     0.07650
C2149       C  0.57299405  0.65121489  0.62969372    -0.02150
C2150       C  0.57519787  0.67566956  0.65266071    -0.02150
C2151       C  0.54871343  0.69575575  0.65892414     0.07780
C2152       C  0.52022456  0.69080434  0.64154401    -0.02350
Br2153     Br  0.48144658  0.71298308  0.65325931    -0.00900
Br2154     Br  0.48197367  0.66466936  0.59008663    -0.00970
Br2155     Br  0.61567305  0.68264558  0.67318550    -0.00930
Br2156     Br  0.60781573  0.62184706  0.62413107    -0.00910
C2157       C  0.51380842  0.92732965  0.88313213    -0.02040
C2158       C  0.54273547  0.94253219  0.88958330     0.07650
C2159       C  0.57005260  0.93484455  0.87117319    -0.02150
C2160       C  0.56893591  0.91053094  0.84791155    -0.02150
C2161       C  0.54001490  0.89519988  0.84154140     0.07780
C2162       C  0.51228967  0.90425543  0.85866957    -0.02350
Br2163     Br  0.47232396  0.88435684  0.84923943    -0.00900
Br2164     Br  0.47618673  0.93831987  0.90776977    -0.00970
Br2165     Br  0.60703599  0.89799769  0.82493679    -0.00930
Br2166     Br  0.60900058  0.95758193  0.87790057    -0.00910
C2167       C  0.52728653  0.68101996  0.84750867    -0.02040
C2168       C  0.55507888  0.69920244  0.84494277     0.07650
C2169       C  0.58062604  0.69337955  0.86610073    -0.02150
C2170       C  0.57793438  0.67050512  0.89070576    -0.02150
C2171       C  0.55045172  0.65181942  0.89296121     0.07780
C2172       C  0.52540592  0.65652741  0.87076169    -0.02350
Br2173     Br  0.99113417  0.62863214  0.87815752    -0.00900
Br2174     Br  0.98857413  0.69121939  0.82970416    -0.00770
Br2175     Br  0.61244521  0.66422539  0.92074904    -0.00930
Br2176     Br  0.61983875  0.71632051  0.86076168    -0.00910
C2177       C  0.94013716  0.53462280  0.63811461    -0.02040
C2178       C  0.93484615  0.54296085  0.60509708     0.07650
C2179       C  0.90315287  0.55107369  0.59609487    -0.02150
C2180       C  0.88065358  0.55917989  0.62005597    -0.02150
C2181       C  0.88579252  0.55019455  0.65266844     0.07780
C2182       C  0.91442919  0.53405883  0.66012798    -0.02350
Br2183     Br  0.91777255  0.50802591  0.69868488    -0.00900
Br2184     Br  0.98168918  0.52482930  0.65557049    -0.00970
Br2185     Br  0.84512738  0.58575446  0.60717134    -0.00930
Br2186     Br  0.88787317  0.54906483  0.55197166    -0.00910
C2187       C  0.68042677  0.51544631  0.65023180    -0.02040
C2188       C  0.70096586  0.54172306  0.65301387     0.07650
C2189       C  0.69644339  0.56804059  0.63194131    -0.02150
C2190       C  0.67338471  0.56685950  0.60754826    -0.02150
C2191       C  0.65079349  0.54238410  0.60760504     0.07780
C2192       C  0.65373587  0.51736408  0.63000486    -0.02350
Br2193     Br  0.62128968  0.48568449  0.63333631    -0.00900
Br2194     Br  0.68995213  0.47541060  0.67113743    -0.00970
Br2195     Br  0.67253102  0.59961894  0.57474546    -0.00930
Br2196     Br  0.71886648  0.60750036  0.63758252    -0.00910
C2197       C  0.68436075  0.56564988  0.84952005    -0.02040
C2198       C  0.70696591  0.54068243  0.85148595     0.07650
C2199       C  0.70431798  0.51806589  0.87659139    -0.02150
C2200       C  0.67901720  0.51996487  0.89894059    -0.02150
C2201       C  0.65529982  0.54372662  0.89571828     0.07780
C2202       C  0.65799609  0.56642794  0.87072857    -0.02350
Br2203     Br  0.62561047  0.59858794  0.86517271    -0.00900
Br2204     Br  0.69001790  0.59956916  0.81848658    -0.00970
Br2205     Br  0.67588828  0.48810260  0.93245956    -0.00930
Br2206     Br  0.73385576  0.48275296  0.87923214    -0.00910
C2207       C  0.94465510  0.53469834  0.86276182    -0.02040
C2208       C  0.94135791  0.55174847  0.89205424     0.07650
C2209       C  0.91338713  0.57017545  0.89738693    -0.02150
C2210       C  0.88881121  0.57056404  0.87437058    -0.02150
C2211       C  0.89203121  0.55303854  0.84567824     0.07780
C2212       C  0.91999803  0.53518589  0.83990685    -0.02350
Br2213     Br  0.92398980  0.51007759  0.80099619    -0.00900
Br2214     Br  0.98226170  0.50956081  0.85361441    -0.00970
Br2215     Br  0.85093264  0.59582791  0.88160517    -0.00930
Br2216     Br  0.90900100  0.59691859  0.93501155    -0.00910
C2217       C  0.69868581  0.91538321  0.52201058    -0.02040
C2218       C  0.69837465  0.89097330  0.49863444     0.07650
C2219       C  0.67334484  0.88956811  0.97618302    -0.02150
C2220       C  0.64863256  0.91225253  0.97752383    -0.02150
C2221       C  0.64950321  0.93738382  0.50006862     0.07780
C2222       C  0.67489560  0.93894317  0.52211004    -0.02350
Br2223     Br  0.67633693  0.97209442  0.55425113    -0.00900
Br2224     Br  0.73034627  0.91569987  0.55579668    -0.00970
Br2225     Br  0.61322315  0.90810527  0.94848719    -0.00930
Br2226     Br  0.67356305  0.85796305  0.94246684    -0.00910
C2227       C  0.70746359  0.66569904  0.99266411    -0.02040
C2228       C  0.70050225  0.69659858  0.50755809     0.07650
C2229       C  0.66803069  0.70326873  0.51517068    -0.02150
C2230       C  0.64609980  0.67863179  0.51846170    -0.02150
C2231       C  0.65285454  0.64844681  0.50538757     0.07780
C2232       C  0.68337092  0.64248979  0.99116850    -0.02350
Br2233     Br  0.69183744  0.60348832  0.96758328    -0.00900
Br2234     Br  0.74569966  0.65633458  0.96772804    -0.00970
Br2235     Br  0.60701794  0.68758266  0.54188598    -0.00930
Br2236     Br  0.64852465  0.74451194  0.50815454    -0.00910
C2237       C  0.92092568  0.69921261  0.96346768    -0.02040
C2238       C  0.89286863  0.69959248  0.48283182     0.07650
C2239       C  0.89202251  0.67854431  0.50969072    -0.02150
C2240       C  0.91572040  0.65510943  0.51344823    -0.02150
C2241       C  0.94131584  0.65328205  0.49143089     0.07780
C2242       C  0.94594478  0.67755622  0.96942120    -0.02350
Br2243     Br  0.98439945  0.68103729  0.94427114    -0.00900
Br2244     Br  0.92276736  0.72647769  0.92582689    -0.00970
Br2245     Br  0.91488466  0.62772711  0.55095154    -0.00930
Br2246     Br  0.86004185  0.68296051  0.54331850    -0.00910
C2247       C  0.88725484  0.92029812  0.98906361    -0.02040
C2248       C  0.89211025  0.89343443  0.50931602     0.07650
C2249       C  0.91981933  0.89116619  0.52807942    -0.02150
C2250       C  0.94432865  0.91334306  0.52388217    -0.02150
C2251       C  0.94008456  0.93994545  0.50315308     0.07780
C2252       C  0.91020565  0.94434264  0.98733587    -0.02350
Br2253     Br  0.90349560  0.97965939  0.95797482    -0.00900
Br2254     Br  0.85165394  0.92228101  0.95966035    -0.00970
Br2255     Br  0.98378222  0.90590342  0.54628499    -0.00930
Br2256     Br  0.92369892  0.85842891  0.56074017    -0.00910
loop_ 
_geom_bond_atom_site_label_1 
_geom_bond_atom_site_label_2 
_geom_bond_distance 
_geom_bond_site_symmetry_2 
_ccdc_geom_bond_type 
C1            C2   1.428       .  A
C1          C288   1.423       .  A
C1          C556   1.487       .  S
C2            C3   1.401       .  A
C2            H7   1.082       .  S
C3          C286   1.402       .  A
C3           C12   1.509       .  S
C4            C5   1.393   1_556  A
C4          C285   1.402       .  A
C4            H8   1.064       .  S
C5            C6   1.401       .  A
C5           C30   1.496       .  S
C6          C283   1.423       .  A
C6            H9   1.083       .  S
C10          C15   1.428       .  A
C10         C293   1.432       .  A
C10         C264   1.487       .  S
C11          C12   1.402       .  A
C11         C292   1.433       .  A
C11          H16   1.082       .  S
C12         C295   1.387       .  A
C13          C14   1.386   1_554  A
C13         C294   1.387   1_554  A
C13          H17   1.050       .  S
C14          C15   1.401       .  A
C14          C21   1.501       .  S
C15          H18   1.083       .  S
C19          C20   1.426       .  A
C19          C24   1.431       .  A
C19         C254   1.530       .  S
C20          C21   1.403   1_554  A
C20          H25   1.080       .  S
C21          C22   1.402       .  A
C22          C23   1.394   1_556  A
C22          H26   1.063       .  S
C23          C24   1.405       .  A
C23          C32   1.503       .  S
C24          H27   1.078       .  S
C28          C29   1.417       .  A
C28          C33   1.419   1_556  A
C28         C244   1.480       .  S
C29          C30   1.398   1_556  A
C29          H34   1.083       .  S
C30          C31   1.405       .  A
C31          C32   1.404       .  A
C31          H35   1.070       .  S
C32          C33   1.399       .  A
C33          H36   1.082       .  S
C37          C38   1.419       .  A
C37          C42   1.414       .  A
C37         C237   1.479       .  S
C38          C39   1.407       .  A
C38          H43   1.083       .  S
C39          C40   1.406       .  A
C39          C48   1.513       .  S
C40          C41   1.399       .  A
C40          H44   1.073       .  S
C41          C42   1.395       .  A
C41          C66   1.493       .  S
C42          H45   1.083       .  S
C46          C47   1.421       .  A
C46          C51   1.408       .  A
C46         C224   1.486       .  S
C47          C48   1.415       .  A
C47          H52   1.083       .  S
C48          C49   1.410       .  A
C49          C50   1.405       .  A
C49          H53   1.082   1_545  S
C50          C51   1.390       .  A
C50          C57   1.484       .  S
C51          H54   1.083       .  S
C55          C56   1.417       .  A
C55          C60   1.422       .  A
C55         C214   1.494       .  S
C56          C57   1.390       .  A
C56          H61   1.081       .  S
C57          C58   1.390       .  A
C58          C59   1.401       .  A
C58          H62   1.076       .  S
C59          C60   1.409       .  A
C59          C68   1.505       .  S
C60          H63   1.083       .  S
C64          C65   1.416       .  A
C64          C69   1.419       .  A
C64         C207   1.501       .  S
C65          C66   1.395       .  A
C65          H70   1.080       .  S
C66          C67   1.401       .  A
C67          C68   1.411       .  A
C67          H71   1.082       .  S
C68          C69   1.412       .  A
C69          H72   1.082       .  S
C73          C74   1.409       .  A
C73          C78   1.416       .  A
C73         C194   1.476       .  S
C74          C75   1.397       .  A
C74          H79   1.083       .  S
C75          C76   1.403       .  A
C75          C84   1.486       .  S
C76          C77   1.413       .  A
C76          H80   1.081       .  S
C77          C78   1.414       .  A
C77          C93   1.518       .  S
C78          H81   1.082       .  S
C82          C83   1.411       .  A
C82          C87   1.419       .  A
C82         C187   1.480       .  S
C83          C84   1.394       .  A
C83          H88   1.083       .  S
C84          C85   1.396       .  A
C85          C86   1.409       .  A
C85          H89   1.076       .  S
C86          C87   1.412       .  A
C86         C104   1.515       .  S
C87          H90   1.082       .  S
C91          C92   1.424       .  A
C91          C96   1.413       .  A
C91         C177   1.494       .  S
C92          C93   1.415       .  A
C92          H97   1.082       .  S
C93          C94   1.409       .  A
C94          C95   1.393       .  A
C94          H98   1.075       .  S
C95          C96   1.389       .  A
C95         C102   1.484       .  S
C96          H99   1.083       .  S
C100        C101   1.409       .  A
C100        C105   1.419       .  A
C100        C167   1.481       .  S
C101        C102   1.394       .  A
C101        H106   1.083       .  S
C102        C103   1.403       .  A
C103        C104   1.411       .  A
C103        H107   1.081   1_455  S
C104        C105   1.414       .  A
C105        H108   1.082       .  S
O109        C120   1.296       .  A
O109       Zr709   2.458   1_554  S
O110        C121   1.292       .  A
O110       Zr708   2.437       .  S
O111        C122   1.294       .  A
O111       Zr399   2.453       .  S
O112        C123   1.292       .  A
O112       Zr117   2.443   1_554  S
O113        C123   1.291       .  A
O113       Zr711   2.433       .  S
O114        C122   1.289       .  A
O114       Zr710   2.427       .  S
O115        C121   1.289       .  A
O115       Zr117   2.424   1_554  S
O116        C120   1.289   1_556  A
O116      Zr1245   2.427       .  S
Zr117       O393   2.455       .  S
Zr117      O1244   2.424   1_455  S
Zr117       O682   2.343   1_556  S
Zr117       O965   2.340       .  S
Zr117       O691   2.341   1_556  S
Zr117       O971   2.336       .  S
O118       Zr144   2.333       .  S
O118       Zr147   2.342       .  S
O118       Zr681   2.339   1_544  S
O119       Zr146   2.343       .  S
O119       Zr963   2.338   1_545  S
O119      Zr1555   2.344   1_455  S
C120        C277   1.490       .  S
C121        C247   1.479       .  S
C122        C184   1.474       .  S
C123        C164   1.471       .  S
H124        O125   0.966       .  S
O125       Zr146   2.337       .  S
O125       Zr963   2.333   1_545  S
O125       Zr426   2.342       .  S
H126        O127   0.965   1_655  S
O127       Zr147   2.337       .  S
O127       Zr681   2.337   1_544  S
O127      Zr1273   2.338   1_455  S
O128        C151   1.290       .  A
O128       Zr144   2.435       .  S
O129        C152   1.297       .  A
O129       Zr145   2.463       .  S
O130        C153   1.296       .  A
O130       Zr146   2.461       .  S
O131        C154   1.295       .  A
O131       Zr147   2.457       .  S
O132        C155   1.293       .  A
O132      Zr1275   2.455       .  S
O133        C156   1.295       .  A
O133      Zr1274   2.453       .  S
O134        C157   1.296       .  A
O134       Zr430   2.456       .  S
O135        C158   1.295       .  A
O135       Zr148   2.457       .  S
O136        C157   1.288       .  A
O136       Zr146   2.420       .  S
O137        C158   1.291       .  A
O137       Zr147   2.433       .  S
O138        C153   1.288       .  A
O138       Zr426   2.420       .  S
O139        C156   1.291       .  A
O139       Zr427   2.430       .  S
O140        C155   1.287       .  A
O140       Zr145   2.426   1_554  S
O141        C154   1.288       .  A
O141       Zr144   2.418       .  S
O142        C151   1.291       .  A
O142       Zr148   2.435       .  S
O143        C152   1.289       .  A
O143      Zr1276   2.426   1_556  S
Zr144       O674   2.441   1_545  S
Zr144       O420   2.423   1_554  S
Zr144       O162   2.338       .  S
Zr144       O407   2.341   1_554  S
Zr144       O432   2.337   1_554  S
Zr145       O673   2.456   1_546  S
Zr145       O421   2.430       .  S
Zr145      O1529   2.343       .  S
Zr145      O1255   2.334   1_556  S
Zr145      O1277   2.341   1_556  S
Zr145      O1570   2.339       .  S
Zr146       O678   2.438   1_545  S
Zr146      O1261   2.453   1_455  S
Zr146       O150   2.346       .  S
Zr146       O160   2.342       .  S
Zr147       O677   2.437   1_545  S
Zr147      O1260   2.455   1_455  S
Zr147       O149   2.348       .  S
Zr147       O162   2.339       .  S
Zr148       O416   2.454   1_554  S
Zr148      O1271   2.428   1_454  S
Zr148       O149   2.347       .  S
Zr148       O162   2.337       .  S
Zr148       O432   2.342   1_554  S
Zr148       O442   2.337   1_554  S
O149      Zr1273   2.343   1_455  S
O150       Zr426   2.336       .  S
O150       Zr430   2.341       .  S
C151        C257   1.496       .  S
C152        C267   1.485       .  S
C153        C227   1.482       .  S
C154        C217   1.477       .  S
C155        C204   1.509       .  S
C156        C234   1.489       .  S
C157        C197   1.474       .  S
C158        C174   1.479       .  S
H159        O160   0.965       .  S
O160      Zr1555   2.339   1_455  S
O160       Zr430   2.338       .  S
H161        O162   0.965       .  S
C163        C164   1.407       .  A
C163        C168   1.404       .  A
C163      Br1298   1.932   1_455  S
C164        C165   1.408       .  A
C165        C166   1.408       .  A
C165       Br172   1.930       .  S
C166        C167   1.413       .  A
C166       Br171   1.930       .  S
C167        C168   1.412       .  A
C168      Br1297   1.933   1_455  S
Br169      C1296   1.933       .  S
Br170      C1291   1.931       .  S
C173        C174   1.405       .  A
C173        C178   1.409       .  A
C173       Br180   1.927   1_455  S
C174        C175   1.408       .  A
C175        C176   1.408       .  A
C175       Br182   1.923       .  S
C176        C177   1.416       .  A
C176       Br181   1.934       .  S
C177        C178   1.419       .  A
C178       Br179   1.934   1_455  S
C183        C184   1.408       .  A
C183        C188   1.407       .  A
C183       Br190   1.931   1_455  S
C184        C185   1.410       .  A
C185        C186   1.409       .  A
C185       Br192   1.930       .  S
C186        C187   1.410       .  A
C186       Br191   1.929       .  S
C187        C188   1.410       .  A
C188       Br189   1.930   1_455  S
C193        C194   1.408       .  A
C193        C198   1.410       .  A
C193      Br1328   1.928   1_455  S
C194        C195   1.410       .  A
C195        C196   1.404       .  A
C195       Br202   1.932       .  S
C196        C197   1.408       .  A
C196       Br201   1.933       .  S
C197        C198   1.415       .  A
C198      Br1327   1.933   1_455  S
Br199      C1326   1.932       .  S
Br200      C1321   1.928       .  S
C203        C204   1.425       .  A
C203        C208   1.410       .  A
C203       Br210   1.936       .  S
C204        C205   1.427       .  A
C205        C206   1.406       .  A
C205       Br212   1.941       .  S
C206        C207   1.415       .  A
C206       Br211   1.937       .  S
C207        C208   1.415       .  A
C208       Br209   1.937       .  S
C213        C214   1.417       .  A
C213        C218   1.406       .  A
C213       Br220   1.934   1_545  S
C214        C215   1.420       .  A
C215        C216   1.405       .  A
C215       Br222   1.937       .  S
C216        C217   1.410       .  A
C216       Br221   1.932       .  S
C217        C218   1.406       .  A
C218       Br219   1.923   1_545  S
C223        C224   1.415       .  A
C223        C228   1.409       .  A
C223       Br230   1.933       .  S
C224        C225   1.411       .  A
C225        C226   1.406       .  A
C225       Br232   1.935   1_545  S
C226        C227   1.414       .  A
C226       Br231   1.930   1_545  S
C227        C228   1.410       .  A
C228       Br229   1.928       .  S
C233        C234   1.416       .  A
C233        C238   1.407       .  A
C233       Br240   1.933       .  S
C234        C235   1.421       .  A
C235        C236   1.409       .  A
C235       Br242   1.932       .  S
C236        C237   1.405       .  A
C236       Br241   1.932       .  S
C237        C238   1.410       .  A
C238       Br239   1.935       .  S
C243        C244   1.415   1_554  A
C243        C248   1.403       .  A
C243       Br250   1.937       .  S
C244        C527   1.409       .  A
C245        C246   1.407       .  A
C245        C526   1.409       .  A
C245       Br252   1.933       .  S
C246        C529   1.416       .  A
C246       Br251   1.930       .  S
C247        C248   1.411       .  A
C247        C528   1.416   1_554  A
C248       Br249   1.935       .  S
C253        C258   1.417       .  A
C253        C536   1.437       .  A
C253       Br260   1.944       .  S
C254        C255   1.427       .  A
C254        C535   1.438   1_554  A
C255        C256   1.402       .  A
C255       Br262   1.939       .  S
C256        C257   1.411       .  A
C256       Br261   1.938       .  S
C257        C540   1.416   1_554  A
C258        C539   1.416       .  A
C258       Br259   1.945       .  S
C263        C268   1.409       .  A
C263        C546   1.409       .  A
C263       Br270   1.932       .  S
C264        C265   1.420   1_556  A
C264        C545   1.408       .  A
C265        C266   1.407       .  A
C265       Br272   1.937       .  S
C266        C267   1.407   1_554  A
C266       Br271   1.928       .  S
C267        C550   1.416       .  A
C268        C549   1.415       .  A
C268       Br269   1.923       .  S
C273        C278   1.409       .  A
C273        C556   1.418       .  A
C273       Br280   1.936       .  S
C274        C275   1.407       .  A
C274        C555   1.418   1_554  A
C274        C283   1.486       .  S
C275        C276   1.408       .  A
C275       Br282   1.934       .  S
C276        C277   1.421       .  A
C276       Br281   1.930       .  S
C277        C560   1.413   1_554  A
C278        C559   1.413       .  A
C278       Br279   1.937       .  S
C283        C284   1.427       .  A
C284        C285   1.401   1_554  A
C284        H289   1.082       .  S
C285        C294   1.508       .  S
C286        C287   1.394       .  A
C286        H290   1.064       .  S
C287        C288   1.401       .  A
C287        C312   1.497       .  S
C288        H291   1.083       .  S
C292        C297   1.429       .  A
C292        C546   1.488       .  S
C293        C294   1.402       .  A
C293        H298   1.082       .  S
C295        C296   1.386       .  A
C295        H299   1.050       .  S
C296        C297   1.402       .  A
C296        C303   1.502       .  S
C297        H300   1.083       .  S
C301        C302   1.427       .  A
C301        C306   1.431       .  A
C301        C536   1.529       .  S
C302        C303   1.404       .  A
C302        H307   1.080       .  S
C303        C304   1.402       .  A
C304        C305   1.394       .  A
C304        H308   1.062       .  S
C305        C306   1.404       .  A
C305        C314   1.504       .  S
C306        H309   1.077       .  S
C310        C311   1.418       .  A
C310        C315   1.420       .  A
C310        C526   1.481       .  S
C311        C312   1.399       .  A
C311        H316   1.083       .  S
C312        C313   1.404       .  A
C313        C314   1.404       .  A
C313        H317   1.069       .  S
C314        C315   1.399       .  A
C315        H318   1.082       .  S
C319        C320   1.420       .  A
C319        C324   1.414       .  A
C319        C519   1.480       .  S
C320        C321   1.408       .  A
C320        H325   1.083       .  S
C321        C322   1.406       .  A
C321        C330   1.514       .  S
C322        C323   1.399       .  A
C322        H326   1.073       .  S
C323        C324   1.394       .  A
C323        C348   1.494       .  S
C324        H327   1.083       .  S
C328        C329   1.423       .  A
C328        C333   1.410       .  A
C328        C506   1.488       .  S
C329        C330   1.416       .  A
C329        H334   1.083       .  S
C330        C331   1.410       .  A
C331        C332   1.405       .  A
C331        H335   1.082   1_545  S
C332        C333   1.391       .  A
C332        C339   1.485       .  S
C333        H336   1.083       .  S
C337        C338   1.418       .  A
C337        C342   1.422       .  A
C337        C496   1.494       .  S
C338        C339   1.391       .  A
C338        H343   1.081       .  S
C339        C340   1.391       .  A
C340        C341   1.402       .  A
C340        H344   1.076       .  S
C341        C342   1.409       .  A
C341        C350   1.505       .  S
C342        H345   1.083       .  S
C346        C347   1.417       .  A
C346        C351   1.419       .  A
C346        C489   1.502       .  S
C347        C348   1.396       .  A
C347        H352   1.080       .  S
C348        C349   1.401       .  A
C349        C350   1.410       .  A
C349        H353   1.082       .  S
C350        C351   1.412       .  A
C351        H354   1.082       .  S
C355        C356   1.410       .  A
C355        C360   1.417       .  A
C355        C476   1.479       .  S
C356        C357   1.398       .  A
C356        H361   1.083       .  S
C357        C358   1.404       .  A
C357        C366   1.488       .  S
C358        C359   1.414       .  A
C358        H362   1.081       .  S
C359        C360   1.414       .  A
C359        C375   1.520       .  S
C360        H363   1.082       .  S
C364        C365   1.413       .  A
C364        C369   1.421       .  A
C364        C469   1.485       .  S
C365        C366   1.396       .  A
C365        H370   1.083       .  S
C366        C367   1.396       .  A
C367        C368   1.408       .  A
C367        H371   1.075       .  S
C368        C369   1.414       .  A
C368        C386   1.517       .  S
C369        H372   1.082       .  S
C373        C374   1.426       .  A
C373        C378   1.416       .  A
C373        C459   1.500       .  S
C374        C375   1.416       .  A
C374        H379   1.082       .  S
C375        C376   1.408       .  A
C376        C377   1.394       .  A
C376        H380   1.075       .  S
C377        C378   1.393       .  A
C377        C384   1.488       .  S
C378        H381   1.082       .  S
C382        C383   1.411       .  A
C382        C387   1.419       .  A
C382        C449   1.483       .  S
C383        C384   1.396       .  A
C383        H388   1.083       .  S
C384        C385   1.404       .  A
C385        C386   1.412       .  A
C385        H389   1.081   1_455  S
C386        C387   1.413       .  A
C387        H390   1.082       .  S
O391        C402   1.296       .  A
O391       Zr991   2.458       .  S
O392        C403   1.293       .  A
O392       Zr990   2.440       .  S
O393        C404   1.295       .  A
O394        C405   1.292       .  A
O394       Zr399   2.440       .  S
O395        C405   1.293       .  A
O395       Zr993   2.444       .  S
O396        C404   1.291       .  A
O396       Zr992   2.436       .  S
O397        C403   1.289       .  A
O397       Zr399   2.424       .  S
O398        C402   1.288       .  A
O398      Zr1527   2.423       .  S
Zr399      O1526   2.423   1_455  S
Zr399       O964   2.343       .  S
Zr399       O683   2.340       .  S
Zr399       O973   2.340       .  S
Zr399       O689   2.335       .  S
O400       Zr963   2.341   1_545  S
O400       Zr426   2.330       .  S
O400       Zr429   2.342       .  S
O401       Zr681   2.339   1_545  S
O401      Zr1273   2.338   1_456  S
O401       Zr428   2.343       .  S
C402        C559   1.489       .  S
C403        C529   1.480       .  S
C404        C466   1.479       .  S
C405        C446   1.475       .  S
H406        O407   0.966   1_565  S
O407       Zr681   2.338   1_545  S
O407       Zr428   2.343       .  S
H408        O409   0.966   1_565  S
O409       Zr963   2.345   1_545  S
O409      Zr1555   2.342   1_455  S
O409       Zr429   2.341       .  S
O410        C433   1.289       .  A
O410       Zr426   2.432       .  S
O411        C434   1.297       .  A
O411       Zr427   2.462       .  S
O412        C435   1.296       .  A
O412       Zr428   2.461       .  S
O413        C436   1.295       .  A
O413       Zr429   2.454       .  S
O414        C437   1.293       .  A
O414      Zr1557   2.455       .  S
O415        C438   1.295       .  A
O415      Zr1556   2.455       .  S
O416        C439   1.295       .  A
O417        C440   1.296       .  A
O417       Zr430   2.458       .  S
O418        C439   1.289       .  A
O418       Zr428   2.426       .  S
O419        C440   1.293       .  A
O419       Zr429   2.446       .  S
O420        C435   1.289       .  A
O421        C438   1.291       .  A
O422        C437   1.287       .  A
O422       Zr427   2.427       .  S
O423        C436   1.289       .  A
O423       Zr426   2.423       .  S
O424        C433   1.291       .  A
O424       Zr430   2.436       .  S
O425        C434   1.290       .  A
O425      Zr1558   2.427       .  S
Zr426       O956   2.434   1_545  S
Zr426       O444   2.336       .  S
Zr427       O955   2.458   1_545  S
Zr427      O1247   2.344       .  S
Zr427      O1537   2.336       .  S
Zr427      O1559   2.342       .  S
Zr427      O1288   2.340       .  S
Zr428       O960   2.432   1_545  S
Zr428      O1543   2.449   1_455  S
Zr428       O432   2.342       .  S
Zr428       O442   2.339       .  S
Zr429       O959   2.447   1_545  S
Zr429      O1542   2.460   1_455  S
Zr429       O431   2.348       .  S
Zr429       O444   2.343       .  S
Zr430      O1553   2.426   1_455  S
Zr430       O431   2.349       .  S
Zr430       O444   2.338       .  S
O431      Zr1555   2.340   1_455  S
C433        C539   1.495       .  S
C434        C549   1.485       .  S
C435        C509   1.483       .  S
C436        C499   1.478       .  S
C437        C486   1.510       .  S
C438        C516   1.490       .  S
C439        C479   1.476       .  S
C440        C456   1.485       .  S
H441        O442   0.965       .  S
O442      Zr1273   2.340   1_456  S
H443        O444   0.966       .  S
C445        C446   1.408       .  A
C445        C450   1.405       .  A
C445      Br1580   1.931   1_455  S
C446        C447   1.410       .  A
C447        C448   1.410       .  A
C447       Br454   1.930       .  S
C448        C449   1.413       .  A
C448       Br453   1.930       .  S
C449        C450   1.413       .  A
C450      Br1579   1.933   1_455  S
Br451      C1578   1.933       .  S
Br452      C1573   1.932       .  S
C455        C456   1.407       .  A
C455        C460   1.411       .  A
C455       Br462   1.927   1_455  S
C456        C457   1.408       .  A
C457        C458   1.410       .  A
C457       Br464   1.924       .  S
C458        C459   1.418       .  A
C458       Br463   1.934       .  S
C459        C460   1.420       .  A
C460       Br461   1.933   1_455  S
C465        C466   1.409       .  A
C465        C470   1.409       .  A
C465       Br472   1.931   1_455  S
C466        C467   1.410       .  A
C467        C468   1.411       .  A
C467       Br474   1.929       .  S
C468        C469   1.411       .  A
C468       Br473   1.929       .  S
C469        C470   1.411       .  A
C470       Br471   1.930   1_455  S
C475        C476   1.408       .  A
C475        C480   1.411       .  A
C475      Br1610   1.928   1_455  S
C476        C477   1.410       .  A
C477        C478   1.404       .  A
C477       Br484   1.932       .  S
C478        C479   1.408       .  A
C478       Br483   1.933       .  S
C479        C480   1.415       .  A
C480      Br1609   1.932   1_455  S
Br481      C1608   1.932       .  S
Br482      C1603   1.928       .  S
C485        C486   1.426       .  A
C485        C490   1.410       .  A
C485       Br492   1.936       .  S
C486        C487   1.426       .  A
C487        C488   1.406       .  A
C487       Br494   1.941       .  S
C488        C489   1.416       .  A
C488       Br493   1.937       .  S
C489        C490   1.415       .  A
C490       Br491   1.936       .  S
C495        C496   1.417       .  A
C495        C500   1.406       .  A
C495       Br502   1.934   1_545  S
C496        C497   1.420       .  A
C497        C498   1.406       .  A
C497       Br504   1.937       .  S
C498        C499   1.410       .  A
C498       Br503   1.932       .  S
C499        C500   1.407       .  A
C500       Br501   1.923   1_545  S
C505        C506   1.415       .  A
C505        C510   1.410       .  A
C505       Br512   1.933       .  S
C506        C507   1.412       .  A
C507        C508   1.407       .  A
C507       Br514   1.934   1_545  S
C508        C509   1.414       .  A
C508       Br513   1.932   1_545  S
C509        C510   1.410       .  A
C510       Br511   1.928       .  S
C515        C516   1.416       .  A
C515        C520   1.407       .  A
C515       Br522   1.933       .  S
C516        C517   1.421       .  A
C517        C518   1.409       .  A
C517       Br524   1.932       .  S
C518        C519   1.405       .  A
C518       Br523   1.932       .  S
C519        C520   1.411       .  A
C520       Br521   1.935       .  S
C525        C526   1.416       .  A
C525        C530   1.404       .  A
C525       Br532   1.937       .  S
C527        C528   1.407       .  A
C527       Br534   1.933       .  S
C528       Br533   1.930       .  S
C529        C530   1.411       .  A
C530       Br531   1.935       .  S
C535        C540   1.418       .  A
C535       Br542   1.943       .  S
C536        C537   1.426       .  A
C537        C538   1.402       .  A
C537       Br544   1.939       .  S
C538        C539   1.411       .  A
C538       Br543   1.938       .  S
C540       Br541   1.945       .  S
C545        C550   1.408       .  A
C545       Br552   1.933       .  S
C546        C547   1.419       .  A
C547        C548   1.407       .  A
C547       Br554   1.937       .  S
C548        C549   1.407       .  A
C548       Br553   1.928       .  S
C550       Br551   1.923       .  S
C555        C560   1.409       .  A
C555       Br562   1.936       .  S
C556        C557   1.407       .  A
C557        C558   1.408       .  A
C557       Br564   1.934       .  S
C558        C559   1.421       .  A
C558       Br563   1.930       .  S
C560       Br561   1.937       .  S
C565        C566   1.427       .  A
C565        C852   1.422       .  A
C565       C1120   1.487       .  S
C566        C567   1.401       .  A
C566        H571   1.082       .  S
C567        C850   1.402       .  A
C567        C576   1.507       .  S
C568        C849   1.403       .  A
C568        C569   1.394   1_556  A
C568        H572   1.064       .  S
C569        C570   1.401       .  A
C569        C594   1.498       .  S
C570        C847   1.423       .  A
C570        H573   1.083       .  S
C574        C857   1.433       .  A
C574        C579   1.429       .  A
C574        C828   1.488       .  S
C575        C856   1.432       .  A
C575        C576   1.402       .  A
C575        H580   1.082       .  S
C576        C859   1.387       .  A
C577        C858   1.387   1_554  A
C577        C578   1.386   1_554  A
C577        H581   1.050       .  S
C578        C579   1.402       .  A
C578        C585   1.502       .  S
C579        H582   1.083       .  S
C583        C584   1.427       .  A
C583        C588   1.432       .  A
C583        C818   1.528       .  S
C584        C585   1.403   1_554  A
C584        H589   1.081       .  S
C585        C586   1.402       .  A
C586        C587   1.393   1_556  A
C586        H590   1.062       .  S
C587        C588   1.404       .  A
C587        C596   1.504       .  S
C588        H591   1.077       .  S
C592        C593   1.419       .  A
C592        C597   1.421   1_556  A
C592        C808   1.484       .  S
C593        C594   1.400   1_556  A
C593        H598   1.083       .  S
C594        C595   1.404       .  A
C595        C596   1.403       .  A
C595        H599   1.069       .  S
C596        C597   1.399       .  A
C597        H600   1.082       .  S
C601        C602   1.419       .  A
C601        C606   1.413       .  A
C601        C801   1.478       .  S
C602        C603   1.407       .  A
C602        H607   1.083       .  S
C603        C604   1.406       .  A
C603        C612   1.513       .  S
C604        C605   1.399       .  A
C604        H608   1.073       .  S
C605        C606   1.394       .  A
C605        C630   1.493       .  S
C606        H609   1.083       .  S
C610        C611   1.422       .  A
C610        C615   1.409       .  A
C610        C788   1.487       .  S
C611        C612   1.415       .  A
C611        H616   1.083       .  S
C612        C613   1.409       .  A
C613        C614   1.404       .  A
C613        H617   1.082       .  S
C614        C615   1.390       .  A
C614        C621   1.484       .  S
C615        H618   1.083       .  S
C619        C620   1.417       .  A
C619        C624   1.421       .  A
C619        C778   1.492       .  S
C620        C621   1.390       .  A
C620        H625   1.081       .  S
C621        C622   1.391       .  A
C622        C623   1.402       .  A
C622        H626   1.076       .  S
C623        C624   1.408       .  A
C623        C632   1.504       .  S
C624        H627   1.083       .  S
C628        C629   1.417       .  A
C628        C633   1.419       .  A
C628        C771   1.502       .  S
C629        C630   1.396       .  A
C629        H634   1.080       .  S
C630        C631   1.401       .  A
C631        C632   1.410       .  A
C631        H635   1.082       .  S
C632        C633   1.412       .  A
C633        H636   1.082       .  S
C637        C638   1.409       .  A
C637        C642   1.414       .  A
C637        C758   1.476       .  S
C638        C639   1.398       .  A
C638        H643   1.083       .  S
C639        C640   1.404       .  A
C639        C648   1.487       .  S
C640        C641   1.413       .  A
C640        H644   1.081       .  S
C641        C642   1.412       .  A
C641        C657   1.518       .  S
C642        H645   1.081       .  S
C646        C647   1.412       .  A
C646        C651   1.419       .  A
C646        C751   1.483       .  S
C647        C648   1.396       .  A
C647        H652   1.083       .  S
C648        C649   1.396       .  A
C649        C650   1.408       .  A
C649        H653   1.076       .  S
C650        C651   1.413       .  A
C650        C668   1.515       .  S
C651        H654   1.082       .  S
C655        C656   1.424       .  A
C655        C660   1.414       .  A
C655        C741   1.497       .  S
C656        C657   1.415       .  A
C656        H661   1.081       .  S
C657        C658   1.408       .  A
C658        C659   1.394       .  A
C658        H662   1.076       .  S
C659        C660   1.391       .  A
C659        C666   1.486       .  S
C660        H663   1.082       .  S
C664        C665   1.409       .  A
C664        C669   1.418       .  A
C664        C731   1.481       .  S
C665        C666   1.394       .  A
C665        H670   1.083       .  S
C666        C667   1.404       .  A
C667        C668   1.412       .  A
C667        H671   1.081   1_455  S
C668        C669   1.413       .  A
C669        H672   1.082       .  S
O673        C684   1.296       .  A
O674        C685   1.293       .  A
O675        C686   1.293       .  A
O675       Zr963   2.447       .  S
O676        C687   1.291       .  A
O676       Zr681   2.437   1_554  S
O677        C687   1.292       .  A
O678        C686   1.291       .  A
O679        C685   1.289       .  A
O679       Zr681   2.427   1_554  S
O680        C684   1.289   1_556  A
O680      Zr1809   2.425       .  S
Zr681       O957   2.439       .  S
Zr681      O1808   2.421   1_456  S
O682       Zr708   2.334       .  S
O682       Zr711   2.345       .  S
O683      Zr2119   2.344   1_455  S
O683       Zr710   2.346       .  S
C684        C841   1.489       .  S
C685        C811   1.483       .  S
C686        C748   1.476       .  S
C687        C728   1.471       .  S
H688        O689   0.966       .  S
O689       Zr990   2.343       .  S
O689       Zr710   2.343       .  S
H690        O691   0.965   1_655  S
O691      Zr1837   2.338   1_454  S
O691       Zr711   2.340       .  S
O692        C715   1.290       .  A
O692       Zr708   2.438       .  S
O693        C716   1.297       .  A
O693       Zr709   2.464       .  S
O694        C717   1.296       .  A
O694       Zr710   2.459       .  S
O695        C718   1.295       .  A
O695       Zr711   2.457       .  S
O696        C719   1.293       .  A
O696      Zr1839   2.454       .  S
O697        C720   1.294       .  A
O697      Zr1838   2.452       .  S
O698        C721   1.293       .  A
O698       Zr994   2.445       .  S
O699        C722   1.294       .  A
O699       Zr712   2.453       .  S
O700        C721   1.289       .  A
O700       Zr710   2.427       .  S
O701        C722   1.292       .  A
O701       Zr711   2.440       .  S
O702        C717   1.290       .  A
O702       Zr990   2.425       .  S
O703        C720   1.290       .  A
O703       Zr991   2.428       .  S
O704        C719   1.287       .  A
O704       Zr709   2.428   1_554  S
O705        C718   1.288       .  A
O705       Zr708   2.416       .  S
O706        C715   1.290       .  A
O706       Zr712   2.432       .  S
O707        C716   1.290       .  A
O707      Zr1840   2.428   1_556  S
Zr708       O984   2.425   1_554  S
Zr708       O971   2.341   1_554  S
Zr708       O996   2.332   1_554  S
Zr708       O726   2.339       .  S
Zr709       O985   2.431       .  S
Zr709      O2093   2.345       .  S
Zr709      O1819   2.338   1_556  S
Zr709      O1841   2.343   1_556  S
Zr709      O2134   2.340       .  S
Zr710      O1825   2.456   1_455  S
Zr710       O714   2.344       .  S
Zr710       O724   2.337       .  S
Zr711      O1824   2.456   1_455  S
Zr711       O713   2.346       .  S
Zr711       O726   2.338       .  S
Zr712       O980   2.436   1_554  S
Zr712      O1835   2.431   1_454  S
Zr712       O713   2.343       .  S
Zr712       O996   2.341   1_554  S
Zr712       O726   2.334       .  S
Zr712      O1006   2.341   1_554  S
O713      Zr1837   2.343   1_454  S
O714       Zr990   2.341       .  S
O714       Zr994   2.336       .  S
C715        C821   1.495       .  S
C716        C831   1.486       .  S
C717        C791   1.483       .  S
C718        C781   1.475       .  S
C719        C768   1.509       .  S
C720        C798   1.488       .  S
C721        C761   1.473       .  S
C722        C738   1.481       .  S
H723        O724   0.965       .  S
O724      Zr2119   2.344   1_455  S
O724       Zr994   2.334       .  S
H725        O726   0.966       .  S
C727        C728   1.407       .  A
C727        C732   1.404       .  A
C727      Br1862   1.932   1_455  S
C728        C729   1.409       .  A
C729        C730   1.408       .  A
C729       Br736   1.931       .  S
C730        C731   1.413       .  A
C730       Br735   1.930       .  S
C731        C732   1.412       .  A
C732      Br1861   1.933   1_455  S
Br733      C1860   1.933       .  S
Br734      C1855   1.931       .  S
C737        C738   1.406       .  A
C737        C742   1.410       .  A
C737       Br744   1.927   1_455  S
C738        C739   1.407       .  A
C739        C740   1.408       .  A
C739       Br746   1.923       .  S
C740        C741   1.417       .  A
C740       Br745   1.934       .  S
C741        C742   1.419       .  A
C742       Br743   1.933   1_455  S
C747        C748   1.409       .  A
C747        C752   1.408       .  A
C747       Br754   1.930   1_455  S
C748        C749   1.410       .  A
C749        C750   1.410       .  A
C749       Br756   1.929       .  S
C750        C751   1.411       .  A
C750       Br755   1.929       .  S
C751        C752   1.411       .  A
C752       Br753   1.930   1_455  S
C757        C758   1.408       .  A
C757        C762   1.410       .  A
C757      Br1892   1.928   1_455  S
C758        C759   1.409       .  A
C759        C760   1.403       .  A
C759       Br766   1.932       .  S
C760        C761   1.408       .  A
C760       Br765   1.933       .  S
C761        C762   1.414       .  A
C762      Br1891   1.932   1_455  S
Br763      C1890   1.932       .  S
Br764      C1885   1.928       .  S
C767        C768   1.426       .  A
C767        C772   1.410       .  A
C767       Br774   1.936       .  S
C768        C769   1.426       .  A
C769        C770   1.406       .  A
C769       Br776   1.941       .  S
C770        C771   1.416       .  A
C770       Br775   1.937       .  S
C771        C772   1.415       .  A
C772       Br773   1.937       .  S
C777        C778   1.417       .  A
C777        C782   1.406       .  A
C777       Br784   1.934       .  S
C778        C779   1.420       .  A
C779        C780   1.404       .  A
C779       Br786   1.937       .  S
C780        C781   1.410       .  A
C780       Br785   1.932       .  S
C781        C782   1.406       .  A
C782       Br783   1.923       .  S
C787        C788   1.415       .  A
C787        C792   1.409       .  A
C787       Br794   1.933       .  S
C788        C789   1.412       .  A
C789        C790   1.407       .  A
C789       Br796   1.934       .  S
C790        C791   1.414       .  A
C790       Br795   1.931       .  S
C791        C792   1.410       .  A
C792       Br793   1.928       .  S
C797        C798   1.416       .  A
C797        C802   1.406       .  A
C797       Br804   1.933       .  S
C798        C799   1.421       .  A
C799        C800   1.409       .  A
C799       Br806   1.932       .  S
C800        C801   1.404       .  A
C800       Br805   1.932       .  S
C801        C802   1.410       .  A
C802       Br803   1.935       .  S
C807        C808   1.416   1_554  A
C807        C812   1.405       .  A
C807       Br814   1.937       .  S
C808       C1091   1.410       .  A
C809       C1090   1.409       .  A
C809        C810   1.408       .  A
C809       Br816   1.933       .  S
C810       C1093   1.417       .  A
C810       Br815   1.931       .  S
C811       C1092   1.417   1_554  A
C811        C812   1.412       .  A
C812       Br813   1.935       .  S
C817       C1100   1.441       .  A
C817        C822   1.419       .  A
C817       Br824   1.943       .  S
C818       C1099   1.436   1_554  A
C818        C819   1.425       .  A
C819        C820   1.402       .  A
C819       Br826   1.938       .  S
C820        C821   1.412       .  A
C820       Br825   1.938       .  S
C821       C1104   1.415   1_554  A
C822       C1103   1.415       .  A
C822       Br823   1.947       .  S
C827       C1110   1.409       .  A
C827        C832   1.409       .  A
C827       Br834   1.933       .  S
C828       C1109   1.409       .  A
C828        C829   1.420   1_556  A
C829        C830   1.407       .  A
C829       Br836   1.937       .  S
C830        C831   1.407   1_554  A
C830       Br835   1.928       .  S
C831       C1114   1.415       .  A
C832       C1113   1.415       .  A
C832       Br833   1.923       .  S
C837       C1120   1.418       .  A
C837        C842   1.409       .  A
C837       Br844   1.936       .  S
C838       C1119   1.418   1_554  A
C838        C839   1.407       .  A
C838        C847   1.487       .  S
C839        C840   1.408       .  A
C839       Br846   1.934       .  S
C840        C841   1.421       .  A
C840       Br845   1.930       .  S
C841       C1124   1.413   1_554  A
C842       C1123   1.413       .  A
C842       Br843   1.937       .  S
C847        C848   1.427       .  A
C848        C849   1.401   1_554  A
C848        H853   1.082       .  S
C849        C858   1.509       .  S
C850        C851   1.393       .  A
C850        H854   1.065       .  S
C851        C852   1.401       .  A
C851        C876   1.496       .  S
C852        H855   1.083       .  S
C856        C861   1.429       .  A
C856       C1110   1.487       .  S
C857        C858   1.403       .  A
C857        H862   1.082       .  S
C859        C860   1.385       .  A
C859        H863   1.050       .  S
C860        C861   1.402       .  A
C860        C867   1.501       .  S
C861        H864   1.083       .  S
C865        C866   1.425       .  A
C865        C870   1.432       .  A
C865       C1100   1.534       .  S
C866        C867   1.402       .  A
C866        H871   1.078       .  S
C867        C868   1.403       .  A
C868        C869   1.395       .  A
C868        H872   1.064       .  S
C869        C870   1.407       .  A
C869        C878   1.505       .  S
C870        H873   1.079       .  S
C874        C875   1.417       .  A
C874        C879   1.421       .  A
C874       C1090   1.483       .  S
C875        C876   1.397       .  A
C875        H880   1.083       .  S
C876        C877   1.405       .  A
C877        C878   1.405       .  A
C877        H881   1.070       .  S
C878        C879   1.401       .  A
C879        H882   1.082       .  S
C883        C884   1.420       .  A
C883        C888   1.414       .  A
C883       C1083   1.480       .  S
C884        C885   1.408       .  A
C884        H889   1.083       .  S
C885        C886   1.406       .  A
C885        C894   1.514       .  S
C886        C887   1.398       .  A
C886        H890   1.073       .  S
C887        C888   1.395       .  A
C887        C912   1.494       .  S
C888        H891   1.083       .  S
C892        C893   1.421       .  A
C892        C897   1.410       .  A
C892       C1070   1.488       .  S
C893        C894   1.415       .  A
C893        H898   1.083       .  S
C894        C895   1.410       .  A
C895        C896   1.405       .  A
C895        H899   1.082       .  S
C896        C897   1.391       .  A
C896        C903   1.486       .  S
C897        H900   1.083       .  S
C901        C902   1.419       .  A
C901        C906   1.423       .  A
C901       C1060   1.496       .  S
C902        C903   1.392       .  A
C902        H907   1.081       .  S
C903        C904   1.390       .  A
C904        C905   1.401       .  A
C904        H908   1.076       .  S
C905        C906   1.410       .  A
C905        C914   1.506       .  S
C906        H909   1.083       .  S
C910        C911   1.416       .  A
C910        C915   1.420       .  A
C910       C1053   1.503       .  S
C911        C912   1.395       .  A
C911        H916   1.080       .  S
C912        C913   1.402       .  A
C913        C914   1.411       .  A
C913        H917   1.082       .  S
C914        C915   1.412       .  A
C915        H918   1.082       .  S
C919        C920   1.418       .  A
C919        C924   1.415       .  A
C919       C1040   1.470       .  S
C920        C921   1.401       .  A
C920        H925   1.083       .  S
C921        C922   1.405       .  A
C921        C930   1.501       .  S
C922        C923   1.404       .  A
C922        H926   1.067       .  S
C923        C924   1.395       .  A
C923        C939   1.495       .  S
C924        H927   1.083       .  S
C928        C929   1.423       .  A
C928        C933   1.420       .  A
C928       C1033   1.475       .  S
C929        C930   1.404       .  A
C929        H934   1.083       .  S
C930        C931   1.394       .  A
C931        C932   1.399       .  A
C931        H935   1.063       .  S
C932        C933   1.399       .  A
C932        C950   1.498       .  S
C933        H936   1.083       .  S
C937        C938   1.423       .  A
C937        C942   1.423       .  A
C937       C1023   1.482       .  S
C938        C939   1.401       .  A
C938        H943   1.083       .  S
C939        C940   1.393       .  A
C940        C941   1.399       .  A
C940        H944   1.064       .  S
C941        C942   1.401       .  A
C941        C948   1.501       .  S
C942        H945   1.082       .  S
C946        C947   1.424       .  A
C946        C951   1.423       .  A
C946       C1013   1.471       .  S
C947        C948   1.400       .  A
C947        H952   1.083       .  S
C948        C949   1.392       .  A
C949        C950   1.391       .  A
C949        H953   1.056       .  S
C950        C951   1.399       .  A
C951        H954   1.083       .  S
O955        C966   1.296       .  A
O956        C967   1.291       .  A
O957        C968   1.291       .  A
O958        C969   1.289       .  A
O958       Zr963   2.428       .  S
O959        C969   1.294       .  A
O960        C968   1.290       .  A
O961        C967   1.290       .  A
O961       Zr963   2.430       .  S
O962        C966   1.288       .  A
O962      Zr2091   2.423       .  S
Zr963      O2090   2.429   1_455  S
O964       Zr990   2.332       .  S
O964       Zr993   2.344       .  S
O965      Zr1837   2.343   1_455  S
O965       Zr992   2.343       .  S
C966       C1123   1.489       .  S
C967       C1093   1.484       .  S
C968       C1030   1.468       .  S
C969       C1010   1.472       .  S
H970        O971   0.966       .  S
O971       Zr992   2.339       .  S
H972        O973   0.965   1_655  S
O973      Zr2119   2.334   1_455  S
O973       Zr993   2.338       .  S
O974        C997   1.289       .  A
O974       Zr990   2.432       .  S
O975        C998   1.297       .  A
O975       Zr991   2.462       .  S
O976        C999   1.296       .  A
O976       Zr992   2.457       .  S
O977       C1000   1.294       .  A
O977       Zr993   2.452       .  S
O978       C1001   1.293       .  A
O978      Zr2121   2.458       .  S
O979       C1002   1.295       .  A
O979      Zr2120   2.454       .  S
O980       C1003   1.291       .  A
O981       C1004   1.291       .  A
O981       Zr994   2.435       .  S
O982       C1003   1.289       .  A
O982       Zr992   2.422       .  S
O983       C1004   1.294       .  A
O983       Zr993   2.445       .  S
O984        C999   1.289       .  A
O985       C1002   1.291       .  A
O986       C1001   1.287       .  A
O986       Zr991   2.425       .  S
O987       C1000   1.290       .  A
O987       Zr990   2.428       .  S
O988        C997   1.291       .  A
O988       Zr994   2.441       .  S
O989        C998   1.289       .  A
O989      Zr2122   2.427       .  S
Zr990      O1008   2.339       .  S
Zr991      O1811   2.343       .  S
Zr991      O2101   2.336       .  S
Zr991      O2123   2.342       .  S
Zr991      O1852   2.339       .  S
Zr992      O2107   2.457   1_455  S
Zr992       O996   2.342       .  S
Zr992      O1006   2.343       .  S
Zr993      O2106   2.446   1_455  S
Zr993       O995   2.343       .  S
Zr993      O1008   2.340       .  S
Zr994      O2117   2.426   1_455  S
Zr994       O995   2.348       .  S
Zr994      O1008   2.340       .  S
O995      Zr2119   2.336   1_455  S
C997       C1103   1.498       .  S
C998       C1113   1.485       .  S
C999       C1073   1.483       .  S
C1000      C1063   1.477       .  S
C1001      C1050   1.510       .  S
C1002      C1080   1.491       .  S
C1003      C1043   1.465       .  S
C1004      C1020   1.480       .  S
H1005      O1006   0.965       .  S
O1006     Zr1837   2.341   1_455  S
H1007      O1008   0.966       .  S
C1009      C1010   1.405       .  A
C1009      C1014   1.402       .  A
C1009     Br2144   1.929   1_455  S
C1010      C1011   1.412       .  A
C1011      C1012   1.406       .  A
C1011     Br1018   1.920       .  S
C1012      C1013   1.403       .  A
C1012     Br1017   1.929       .  S
C1013      C1014   1.414       .  A
C1014     Br2143   1.934   1_455  S
Br1015     C2142   1.933       .  S
Br1016     C2137   1.932       .  S
C1019      C1020   1.414       .  A
C1019      C1024   1.409       .  A
C1019     Br1026   1.926   1_455  S
C1020      C1021   1.409       .  A
C1021      C1022   1.405       .  A
C1021     Br1028   1.934       .  S
C1022      C1023   1.416       .  A
C1022     Br1027   1.936       .  S
C1023      C1024   1.408       .  A
C1024     Br1025   1.931   1_455  S
C1029      C1030   1.411       .  A
C1029      C1034   1.409       .  A
C1029     Br1036   1.927   1_455  S
C1030      C1031   1.405       .  A
C1031      C1032   1.402       .  A
C1031     Br1038   1.932       .  S
C1032      C1033   1.413       .  A
C1032     Br1037   1.933       .  S
C1033      C1034   1.406       .  A
C1034     Br1035   1.926   1_455  S
C1039      C1040   1.412       .  A
C1039      C1044   1.399       .  A
C1039     Br2174   1.935   1_455  S
C1040      C1041   1.407       .  A
C1041      C1042   1.407       .  A
C1041     Br1048   1.927       .  S
C1042      C1043   1.411       .  A
C1042     Br1047   1.930       .  S
C1043      C1044   1.407       .  A
C1044     Br2173   1.936   1_455  S
Br1045     C2172   1.932       .  S
Br1046     C2167   1.928       .  S
C1049      C1050   1.425       .  A
C1049      C1054   1.410       .  A
C1049     Br1056   1.936       .  S
C1050      C1051   1.427       .  A
C1051      C1052   1.406       .  A
C1051     Br1058   1.941       .  S
C1052      C1053   1.415       .  A
C1052     Br1057   1.937       .  S
C1053      C1054   1.415       .  A
C1054     Br1055   1.937       .  S
C1059      C1060   1.418       .  A
C1059      C1064   1.406       .  A
C1059     Br1066   1.934       .  S
C1060      C1061   1.422       .  A
C1061      C1062   1.408       .  A
C1061     Br1068   1.935       .  S
C1062      C1063   1.408       .  A
C1062     Br1067   1.932       .  S
C1063      C1064   1.405       .  A
C1064     Br1065   1.922       .  S
C1069      C1070   1.415       .  A
C1069      C1074   1.409       .  A
C1069     Br1076   1.933       .  S
C1070      C1071   1.412       .  A
C1071      C1072   1.407       .  A
C1071     Br1078   1.934       .  S
C1072      C1073   1.414       .  A
C1072     Br1077   1.932       .  S
C1073      C1074   1.411       .  A
C1074     Br1075   1.929       .  S
C1079      C1080   1.416       .  A
C1079      C1084   1.407       .  A
C1079     Br1086   1.933       .  S
C1080      C1081   1.421       .  A
C1081      C1082   1.410       .  A
C1081     Br1088   1.932       .  S
C1082      C1083   1.405       .  A
C1082     Br1087   1.932       .  S
C1083      C1084   1.410       .  A
C1084     Br1085   1.935       .  S
C1089      C1090   1.415       .  A
C1089      C1094   1.404       .  A
C1089     Br1096   1.939       .  S
C1091      C1092   1.408       .  A
C1091     Br1098   1.933       .  S
C1092     Br1097   1.930       .  S
C1093      C1094   1.415       .  A
C1094     Br1095   1.938       .  S
C1099      C1104   1.417       .  A
C1099     Br1106   1.944       .  S
C1100      C1101   1.429       .  A
C1101      C1102   1.404       .  A
C1101     Br1108   1.940       .  S
C1102      C1103   1.411       .  A
C1102     Br1107   1.938       .  S
C1104     Br1105   1.944       .  S
C1109      C1114   1.409       .  A
C1109     Br1116   1.932       .  S
C1110      C1111   1.420       .  A
C1111      C1112   1.407       .  A
C1111     Br1118   1.937       .  S
C1112      C1113   1.407       .  A
C1112     Br1117   1.928       .  S
C1114     Br1115   1.923       .  S
C1119      C1124   1.409       .  A
C1119     Br1126   1.936       .  S
C1120      C1121   1.407       .  A
C1121      C1122   1.408       .  A
C1121     Br1128   1.934       .  S
C1122      C1123   1.421       .  A
C1122     Br1127   1.930       .  S
C1124     Br1125   1.937       .  S
C1129      C1130   1.427       .  A
C1129      C1416   1.422       .  A
C1129      C1684   1.486       .  S
C1130      C1131   1.401       .  A
C1130      H1135   1.082       .  S
C1131      C1414   1.402       .  A
C1131      C1140   1.508       .  S
C1132      C1413   1.402       .  A
C1132      C1133   1.393   1_556  A
C1132      H1136   1.064       .  S
C1133      C1134   1.402       .  A
C1133      C1158   1.496       .  S
C1134      C1411   1.423       .  A
C1134      H1137   1.083       .  S
C1138      C1421   1.432       .  A
C1138      C1143   1.428       .  A
C1138      C1392   1.486       .  S
C1139      C1420   1.433       .  A
C1139      C1140   1.402       .  A
C1139      H1144   1.082       .  S
C1140      C1423   1.387       .  A
C1141      C1422   1.387   1_554  A
C1141      C1142   1.385   1_554  A
C1141      H1145   1.050       .  S
C1142      C1143   1.401       .  A
C1142      C1149   1.501       .  S
C1143      H1146   1.083       .  S
C1147      C1148   1.426       .  A
C1147      C1152   1.432       .  A
C1147      C1382   1.531       .  S
C1148      C1149   1.403   1_554  A
C1148      H1153   1.080       .  S
C1149      C1150   1.402       .  A
C1150      C1151   1.394   1_556  A
C1150      H1154   1.063       .  S
C1151      C1152   1.405       .  A
C1151      C1160   1.504       .  S
C1152      H1155   1.078       .  S
C1156      C1157   1.416   1_554  A
C1156      C1161   1.419       .  A
C1156      C1372   1.476   1_554  S
C1157      C1158   1.397   1_556  A
C1157      H1162   1.084       .  S
C1158      C1159   1.405       .  A
C1159      C1160   1.405       .  A
C1159      H1163   1.070       .  S
C1160      C1161   1.399       .  A
C1161      H1164   1.082       .  S
C1165      C1166   1.419       .  A
C1165      C1170   1.414       .  A
C1165      C1365   1.479       .  S
C1166      C1167   1.408       .  A
C1166      H1171   1.083       .  S
C1167      C1168   1.405       .  A
C1167      C1176   1.513       .  S
C1168      C1169   1.399       .  A
C1168      H1172   1.073       .  S
C1169      C1170   1.395       .  A
C1169      C1194   1.493       .  S
C1170      H1173   1.083       .  S
C1174      C1175   1.421       .  A
C1174      C1179   1.409       .  A
C1174      C1352   1.486       .  S
C1175      C1176   1.415       .  A
C1175      H1180   1.083       .  S
C1176      C1177   1.410       .  A
C1177      C1178   1.405       .  A
C1177      H1181   1.082   1_545  S
C1178      C1179   1.390       .  A
C1178      C1185   1.484       .  S
C1179      H1182   1.083       .  S
C1183      C1184   1.417       .  A
C1183      C1188   1.422       .  A
C1183      C1342   1.494       .  S
C1184      C1185   1.391       .  A
C1184      H1189   1.081       .  S
C1185      C1186   1.390       .  A
C1186      C1187   1.401       .  A
C1186      H1190   1.077       .  S
C1187      C1188   1.409       .  A
C1187      C1196   1.504       .  S
C1188      H1191   1.083       .  S
C1192      C1193   1.416       .  A
C1192      C1197   1.419       .  A
C1192      C1335   1.500       .  S
C1193      C1194   1.395       .  A
C1193      H1198   1.080       .  S
C1194      C1195   1.402       .  A
C1195      C1196   1.411       .  A
C1195      H1199   1.082       .  S
C1196      C1197   1.411       .  A
C1197      H1200   1.082       .  S
C1201      C1202   1.410       .  A
C1201      C1206   1.417       .  A
C1201      C1322   1.478       .  S
C1202      C1203   1.398       .  A
C1202      H1207   1.083       .  S
C1203      C1204   1.404       .  A
C1203      C1212   1.488       .  S
C1204      C1205   1.413       .  A
C1204      H1208   1.081       .  S
C1205      C1206   1.414       .  A
C1205      C1221   1.519       .  S
C1206      H1209   1.082       .  S
C1210      C1211   1.413       .  A
C1210      C1215   1.420       .  A
C1210      C1315   1.484       .  S
C1211      C1212   1.396       .  A
C1211      H1216   1.083       .  S
C1212      C1213   1.396       .  A
C1213      C1214   1.408       .  A
C1213      H1217   1.075       .  S
C1214      C1215   1.413       .  A
C1214      C1232   1.517       .  S
C1215      H1218   1.082       .  S
C1219      C1220   1.425       .  A
C1219      C1224   1.415       .  A
C1219      C1305   1.498       .  S
C1220      C1221   1.416       .  A
C1220      H1225   1.082       .  S
C1221      C1222   1.408       .  A
C1222      C1223   1.393       .  A
C1222      H1226   1.075       .  S
C1223      C1224   1.391       .  A
C1223      C1230   1.486       .  S
C1224      H1227   1.082       .  S
C1228      C1229   1.410       .  A
C1228      C1233   1.419       .  A
C1228      C1295   1.483       .  S
C1229      C1230   1.395       .  A
C1229      H1234   1.083       .  S
C1230      C1231   1.403       .  A
C1231      C1232   1.411       .  A
C1231      H1235   1.081       .  S
C1232      C1233   1.414       .  A
C1233      H1236   1.082       .  S
O1237      C1248   1.296       .  A
O1237     Zr1837   2.458   1_554  S
O1238      C1249   1.295       .  A
O1238     Zr1836   2.435   1_556  S
O1239      C1250   1.294       .  A
O1239     Zr1527   2.454       .  S
O1240      C1251   1.292       .  A
O1240     Zr1245   2.442   1_554  S
O1241      C1251   1.292       .  A
O1241     Zr1839   2.437       .  S
O1242      C1250   1.291       .  A
O1242     Zr1838   2.435       .  S
O1243      C1249   1.291       .  A
O1243     Zr1245   2.439       .  S
O1244      C1248   1.288   1_556  A
Zr1245     O1521   2.453       .  S
Zr1245     O1810   2.341   1_556  S
Zr1245     O2093   2.343       .  S
Zr1245     O1819   2.343   1_556  S
Zr1245     O2099   2.335       .  S
O1246     Zr1809   2.343   1_544  S
O1246     Zr1272   2.333       .  S
O1246     Zr1275   2.344       .  S
O1247     Zr2091   2.341   1_545  S
O1247     Zr1274   2.345       .  S
C1248      C1405   1.489       .  S
C1249      C1375   1.477       .  S
C1250      C1312   1.478       .  S
C1251      C1292   1.473       .  S
H1252      O1253   0.966   1_565  S
O1253     Zr2091   2.336   1_545  S
O1253     Zr1554   2.340       .  S
O1253     Zr1274   2.341       .  S
H1254      O1255   0.983   1_565  S
O1255     Zr1809   2.342   1_544  S
O1255     Zr1275   2.340       .  S
O1256      C1279   1.290       .  A
O1256     Zr1272   2.435       .  S
O1257      C1280   1.297       .  A
O1257     Zr1273   2.459   1_556  S
O1258      C1281   1.296       .  A
O1258     Zr1274   2.460       .  S
O1259      C1282   1.295       .  A
O1259     Zr1275   2.456       .  S
O1260      C1283   1.293       .  A
O1261      C1284   1.295       .  A
O1262      C1285   1.295       .  A
O1262     Zr1558   2.454       .  S
O1263      C1286   1.296       .  A
O1263     Zr1276   2.458       .  S
O1264      C1285   1.289       .  A
O1264     Zr1274   2.426       .  S
O1265      C1286   1.292       .  A
O1265     Zr1275   2.440       .  S
O1266      C1281   1.289       .  A
O1266     Zr1554   2.420       .  S
O1267      C1284   1.291       .  A
O1267     Zr1555   2.430       .  S
O1268      C1283   1.286       .  A
O1268     Zr1273   2.424       .  S
O1269      C1282   1.288       .  A
O1269     Zr1272   2.419       .  S
O1270      C1279   1.291       .  A
O1270     Zr1276   2.435       .  S
O1271      C1280   1.290       .  A
Zr1272     O1802   2.438   1_545  S
Zr1272     O1548   2.422   1_554  S
Zr1272     O1535   2.341   1_554  S
Zr1272     O1560   2.338   1_554  S
Zr1272     O1290   2.337       .  S
Zr1273     O1801   2.459   1_545  S
Zr1273     O1549   2.434   1_554  S
Zr1274     O1806   2.435   1_545  S
Zr1274     O1278   2.344       .  S
Zr1274     O1288   2.341       .  S
Zr1275     O1805   2.437   1_545  S
Zr1275     O1277   2.347       .  S
Zr1275     O1290   2.340       .  S
Zr1276     O1544   2.453   1_554  S
Zr1276     O1277   2.348       .  S
Zr1276     O1560   2.342   1_554  S
Zr1276     O1290   2.337       .  S
Zr1276     O1570   2.339   1_554  S
O1278     Zr1554   2.338       .  S
O1278     Zr1558   2.342       .  S
C1279      C1385   1.496       .  S
C1280      C1395   1.484       .  S
C1281      C1355   1.482       .  S
C1282      C1345   1.477       .  S
C1283      C1332   1.508       .  S
C1284      C1362   1.489       .  S
C1285      C1325   1.476       .  S
C1286      C1302   1.482       .  S
H1287      O1288   0.965       .  S
O1288     Zr1558   2.338       .  S
H1289      O1290   0.966       .  S
C1291      C1292   1.407       .  A
C1291      C1296   1.405       .  A
C1292      C1293   1.409       .  A
C1293      C1294   1.409       .  A
C1293     Br1300   1.930       .  S
C1294      C1295   1.413       .  A
C1294     Br1299   1.930       .  S
C1295      C1296   1.413       .  A
C1301      C1302   1.406       .  A
C1301      C1306   1.411       .  A
C1301     Br1308   1.927       .  S
C1302      C1303   1.408       .  A
C1303      C1304   1.409       .  A
C1303     Br1310   1.923       .  S
C1304      C1305   1.417       .  A
C1304     Br1309   1.934       .  S
C1305      C1306   1.419       .  A
C1306     Br1307   1.933       .  S
C1311      C1312   1.409       .  A
C1311      C1316   1.409       .  A
C1311     Br1318   1.931       .  S
C1312      C1313   1.410       .  A
C1313      C1314   1.410       .  A
C1313     Br1320   1.929       .  S
C1314      C1315   1.411       .  A
C1314     Br1319   1.929       .  S
C1315      C1316   1.411       .  A
C1316     Br1317   1.930       .  S
C1321      C1322   1.408       .  A
C1321      C1326   1.411       .  A
C1322      C1323   1.410       .  A
C1323      C1324   1.404       .  A
C1323     Br1330   1.932       .  S
C1324      C1325   1.408       .  A
C1324     Br1329   1.933       .  S
C1325      C1326   1.415       .  A
C1331      C1332   1.425       .  A
C1331      C1336   1.410       .  A
C1331     Br1338   1.936       .  S
C1332      C1333   1.427       .  A
C1333      C1334   1.405       .  A
C1333     Br1340   1.942       .  S
C1334      C1335   1.415       .  A
C1334     Br1339   1.937       .  S
C1335      C1336   1.415       .  A
C1336     Br1337   1.936       .  S
C1341      C1342   1.417       .  A
C1341      C1346   1.406       .  A
C1341     Br1348   1.934   1_545  S
C1342      C1343   1.420       .  A
C1343      C1344   1.405       .  A
C1343     Br1350   1.937       .  S
C1344      C1345   1.410       .  A
C1344     Br1349   1.932       .  S
C1345      C1346   1.406       .  A
C1346     Br1347   1.923   1_545  S
C1351      C1352   1.415       .  A
C1351      C1356   1.409       .  A
C1351     Br1358   1.933       .  S
C1352      C1353   1.411       .  A
C1353      C1354   1.406       .  A
C1353     Br1360   1.935   1_545  S
C1354      C1355   1.414       .  A
C1354     Br1359   1.932   1_545  S
C1355      C1356   1.410       .  A
C1356     Br1357   1.928       .  S
C1361      C1362   1.416       .  A
C1361      C1366   1.407       .  A
C1361     Br1368   1.933       .  S
C1362      C1363   1.421       .  A
C1363      C1364   1.409       .  A
C1363     Br1370   1.932       .  S
C1364      C1365   1.405       .  A
C1364     Br1369   1.932       .  S
C1365      C1366   1.410       .  A
C1366     Br1367   1.935       .  S
C1371      C1372   1.415   1_554  A
C1371      C1376   1.402       .  A
C1371     Br1378   1.934       .  S
C1372      C1655   1.410       .  A
C1373      C1654   1.409       .  A
C1373      C1374   1.408       .  A
C1373     Br1380   1.933       .  S
C1374      C1657   1.416       .  A
C1374     Br1379   1.930       .  S
C1375      C1656   1.417       .  A
C1375      C1376   1.401   1_556  A
C1376     Br1377   1.938       .  S
C1381      C1664   1.437       .  A
C1381      C1386   1.417       .  A
C1381     Br1388   1.944       .  S
C1382      C1663   1.438   1_554  A
C1382      C1383   1.427       .  A
C1383      C1384   1.402       .  A
C1383     Br1390   1.939       .  S
C1384      C1385   1.411       .  A
C1384     Br1389   1.938       .  S
C1385      C1668   1.416   1_554  A
C1386      C1667   1.415       .  A
C1386     Br1387   1.945       .  S
C1391      C1674   1.409       .  A
C1391      C1396   1.409       .  A
C1391     Br1398   1.933       .  S
C1392      C1673   1.409       .  A
C1392      C1393   1.419   1_556  A
C1393      C1394   1.406       .  A
C1393     Br1400   1.937       .  S
C1394      C1395   1.407   1_554  A
C1394     Br1399   1.928       .  S
C1395      C1678   1.415       .  A
C1396      C1677   1.416       .  A
C1396     Br1397   1.923       .  S
C1401      C1684   1.418       .  A
C1401      C1406   1.408       .  A
C1401     Br1408   1.937       .  S
C1402      C1683   1.418   1_554  A
C1402      C1403   1.407       .  A
C1402      C1411   1.486       .  S
C1403      C1404   1.408       .  A
C1403     Br1410   1.934       .  S
C1404      C1405   1.421       .  A
C1404     Br1409   1.930       .  S
C1405      C1688   1.413   1_554  A
C1406      C1687   1.413       .  A
C1406     Br1407   1.938       .  S
C1411      C1412   1.427       .  A
C1412      C1413   1.401   1_554  A
C1412      H1417   1.082       .  S
C1413      C1422   1.508       .  S
C1414      C1415   1.394       .  A
C1414      H1418   1.064       .  S
C1415      C1416   1.401       .  A
C1415      C1440   1.497       .  S
C1416      H1419   1.083       .  S
C1420      C1425   1.429       .  A
C1420      C1674   1.487       .  S
C1421      C1422   1.402       .  A
C1421      H1426   1.082       .  S
C1423      C1424   1.386       .  A
C1423      H1427   1.050       .  S
C1424      C1425   1.402       .  A
C1424      C1431   1.502       .  S
C1425      H1428   1.083       .  S
C1429      C1430   1.426       .  A
C1429      C1434   1.431       .  A
C1429      C1664   1.529       .  S
C1430      C1431   1.403       .  A
C1430      H1435   1.080       .  S
C1431      C1432   1.402       .  A
C1432      C1433   1.394       .  A
C1432      H1436   1.062       .  S
C1433      C1434   1.404       .  A
C1433      C1442   1.503       .  S
C1434      H1437   1.077       .  S
C1438      C1439   1.418       .  A
C1438      C1443   1.420       .  A
C1438      C1654   1.482       .  S
C1439      C1440   1.399       .  A
C1439      H1444   1.083       .  S
C1440      C1441   1.404       .  A
C1441      C1442   1.403       .  A
C1441      H1445   1.069       .  S
C1442      C1443   1.399       .  A
C1443      H1446   1.082       .  S
C1447      C1448   1.419       .  A
C1447      C1452   1.414       .  A
C1447      C1647   1.480       .  S
C1448      C1449   1.408       .  A
C1448      H1453   1.083       .  S
C1449      C1450   1.406       .  A
C1449      C1458   1.513       .  S
C1450      C1451   1.399       .  A
C1450      H1454   1.073       .  S
C1451      C1452   1.395       .  A
C1451      C1476   1.494       .  S
C1452      H1455   1.083       .  S
C1456      C1457   1.422       .  A
C1456      C1461   1.409       .  A
C1456      C1634   1.487       .  S
C1457      C1458   1.415       .  A
C1457      H1462   1.083       .  S
C1458      C1459   1.410       .  A
C1459      C1460   1.405       .  A
C1459      H1463   1.082   1_545  S
C1460      C1461   1.390       .  A
C1460      C1467   1.484       .  S
C1461      H1464   1.083       .  S
C1465      C1466   1.417       .  A
C1465      C1470   1.422       .  A
C1465      C1624   1.494       .  S
C1466      C1467   1.391       .  A
C1466      H1471   1.081       .  S
C1467      C1468   1.390       .  A
C1468      C1469   1.401       .  A
C1468      H1472   1.076       .  S
C1469      C1470   1.409       .  A
C1469      C1478   1.505       .  S
C1470      H1473   1.083       .  S
C1474      C1475   1.417       .  A
C1474      C1479   1.419       .  A
C1474      C1617   1.502       .  S
C1475      C1476   1.396       .  A
C1475      H1480   1.080       .  S
C1476      C1477   1.401       .  A
C1477      C1478   1.411       .  A
C1477      H1481   1.082       .  S
C1478      C1479   1.412       .  A
C1479      H1482   1.082       .  S
C1483      C1484   1.410       .  A
C1483      C1488   1.416       .  A
C1483      C1604   1.478       .  S
C1484      C1485   1.398       .  A
C1484      H1489   1.083       .  S
C1485      C1486   1.404       .  A
C1485      C1494   1.488       .  S
C1486      C1487   1.413       .  A
C1486      H1490   1.081       .  S
C1487      C1488   1.413       .  A
C1487      C1503   1.519       .  S
C1488      H1491   1.082       .  S
C1492      C1493   1.413       .  A
C1492      C1497   1.420       .  A
C1492      C1597   1.484       .  S
C1493      C1494   1.396       .  A
C1493      H1498   1.083       .  S
C1494      C1495   1.396       .  A
C1495      C1496   1.408       .  A
C1495      H1499   1.075       .  S
C1496      C1497   1.413       .  A
C1496      C1514   1.516       .  S
C1497      H1500   1.082       .  S
C1501      C1502   1.425       .  A
C1501      C1506   1.414       .  A
C1501      C1587   1.498       .  S
C1502      C1503   1.416       .  A
C1502      H1507   1.082       .  S
C1503      C1504   1.408       .  A
C1504      C1505   1.393       .  A
C1504      H1508   1.075       .  S
C1505      C1506   1.391       .  A
C1505      C1512   1.486       .  S
C1506      H1509   1.082       .  S
C1510      C1511   1.410       .  A
C1510      C1515   1.419       .  A
C1510      C1577   1.482       .  S
C1511      C1512   1.394       .  A
C1511      H1516   1.083       .  S
C1512      C1513   1.404       .  A
C1513      C1514   1.411       .  A
C1513      H1517   1.081       .  S
C1514      C1515   1.413       .  A
C1515      H1518   1.082       .  S
O1519      C1530   1.296       .  A
O1519     Zr2119   2.456       .  S
O1520      C1531   1.292       .  A
O1520     Zr2118   2.440       .  S
O1521      C1532   1.294       .  A
O1522      C1533   1.292       .  A
O1522     Zr1527   2.442       .  S
O1523      C1533   1.292       .  A
O1523     Zr2121   2.436       .  S
O1524      C1532   1.291       .  A
O1524     Zr2120   2.435       .  S
O1525      C1531   1.289       .  A
O1525     Zr1527   2.424       .  S
O1526      C1530   1.288       .  A
Zr1527     O2092   2.343       .  S
Zr1527     O1811   2.340       .  S
Zr1527     O2101   2.341       .  S
Zr1527     O1817   2.337       .  S
O1528     Zr2091   2.343   1_545  S
O1528     Zr1554   2.333       .  S
O1528     Zr1557   2.344       .  S
O1529     Zr1809   2.341   1_545  S
O1529     Zr1556   2.344       .  S
C1530      C1687   1.488       .  S
C1531      C1657   1.480       .  S
C1532      C1594   1.477       .  S
C1533      C1574   1.472       .  S
H1534      O1535   0.966   1_565  S
O1535     Zr1809   2.337   1_545  S
O1535     Zr1556   2.341       .  S
H1536      O1537   0.965   1_565  S
O1537     Zr2091   2.341   1_545  S
O1537     Zr1557   2.340       .  S
O1538      C1561   1.290       .  A
O1538     Zr1554   2.434       .  S
O1539      C1562   1.297       .  A
O1539     Zr1555   2.464       .  S
O1540      C1563   1.296       .  A
O1540     Zr1556   2.460       .  S
O1541      C1564   1.295       .  A
O1541     Zr1557   2.457       .  S
O1542      C1565   1.294       .  A
O1543      C1566   1.294       .  A
O1544      C1567   1.295       .  A
O1545      C1568   1.296       .  A
O1545     Zr1558   2.458       .  S
O1546      C1567   1.289       .  A
O1546     Zr1556   2.425       .  S
O1547      C1568   1.292       .  A
O1547     Zr1557   2.439       .  S
O1548      C1563   1.289       .  A
O1549      C1566   1.291       .  A
O1550      C1565   1.287       .  A
O1550     Zr1555   2.426       .  S
O1551      C1564   1.288       .  A
O1551     Zr1554   2.419       .  S
O1552      C1561   1.291       .  A
O1552     Zr1558   2.435       .  S
O1553      C1562   1.289       .  A
Zr1554     O2084   2.439   1_545  S
Zr1554     O1572   2.337       .  S
Zr1555     O2083   2.453   1_545  S
Zr1556     O2088   2.435   1_545  S
Zr1556     O1560   2.345       .  S
Zr1556     O1570   2.340       .  S
Zr1557     O2087   2.436   1_545  S
Zr1557     O1559   2.347       .  S
Zr1557     O1572   2.339       .  S
Zr1558     O1559   2.348       .  S
Zr1558     O1572   2.338       .  S
C1561      C1667   1.495       .  S
C1562      C1677   1.486       .  S
C1563      C1637   1.482       .  S
C1564      C1627   1.478       .  S
C1565      C1614   1.511       .  S
C1566      C1644   1.491       .  S
C1567      C1607   1.475       .  S
C1568      C1584   1.482       .  S
H1569      O1570   0.965       .  S
H1571      O1572   0.965       .  S
C1573      C1574   1.407       .  A
C1573      C1578   1.404       .  A
C1574      C1575   1.409       .  A
C1575      C1576   1.409       .  A
C1575     Br1582   1.930       .  S
C1576      C1577   1.413       .  A
C1576     Br1581   1.930       .  S
C1577      C1578   1.412       .  A
C1583      C1584   1.406       .  A
C1583      C1588   1.411       .  A
C1583     Br1590   1.927       .  S
C1584      C1585   1.408       .  A
C1585      C1586   1.409       .  A
C1585     Br1592   1.923       .  S
C1586      C1587   1.417       .  A
C1586     Br1591   1.934       .  S
C1587      C1588   1.420       .  A
C1588     Br1589   1.933       .  S
C1593      C1594   1.409       .  A
C1593      C1598   1.409       .  A
C1593     Br1600   1.931       .  S
C1594      C1595   1.410       .  A
C1595      C1596   1.410       .  A
C1595     Br1602   1.929       .  S
C1596      C1597   1.411       .  A
C1596     Br1601   1.929       .  S
C1597      C1598   1.411       .  A
C1598     Br1599   1.930       .  S
C1603      C1604   1.408       .  A
C1603      C1608   1.411       .  A
C1604      C1605   1.410       .  A
C1605      C1606   1.404       .  A
C1605     Br1612   1.932       .  S
C1606      C1607   1.408       .  A
C1606     Br1611   1.933       .  S
C1607      C1608   1.414       .  A
C1613      C1614   1.425       .  A
C1613      C1618   1.411       .  A
C1613     Br1620   1.933       .  S
C1614      C1615   1.427       .  A
C1615      C1616   1.406       .  A
C1615     Br1622   1.941       .  S
C1616      C1617   1.415       .  A
C1616     Br1621   1.937       .  S
C1617      C1618   1.415       .  A
C1618     Br1619   1.937       .  S
C1623      C1624   1.417       .  A
C1623      C1628   1.406       .  A
C1623     Br1630   1.934   1_545  S
C1624      C1625   1.420       .  A
C1625      C1626   1.405       .  A
C1625     Br1632   1.937       .  S
C1626      C1627   1.410       .  A
C1626     Br1631   1.932       .  S
C1627      C1628   1.406       .  A
C1628     Br1629   1.923   1_545  S
C1633      C1634   1.415       .  A
C1633      C1638   1.409       .  A
C1633     Br1640   1.933       .  S
C1634      C1635   1.411       .  A
C1635      C1636   1.407       .  A
C1635     Br1642   1.935   1_545  S
C1636      C1637   1.414       .  A
C1636     Br1641   1.931   1_545  S
C1637      C1638   1.410       .  A
C1638     Br1639   1.928       .  S
C1643      C1644   1.417       .  A
C1643      C1648   1.407       .  A
C1643     Br1650   1.934       .  S
C1644      C1645   1.421       .  A
C1645      C1646   1.410       .  A
C1645     Br1652   1.932       .  S
C1646      C1647   1.405       .  A
C1646     Br1651   1.932       .  S
C1647      C1648   1.410       .  A
C1648     Br1649   1.936       .  S
C1653      C1654   1.416       .  A
C1653      C1658   1.404       .  A
C1653     Br1660   1.937       .  S
C1655      C1656   1.409       .  A
C1655     Br1662   1.935       .  S
C1656     Br1661   1.931       .  S
C1657      C1658   1.411       .  A
C1658     Br1659   1.935       .  S
C1663      C1668   1.418       .  A
C1663     Br1670   1.944       .  S
C1664      C1665   1.426       .  A
C1665      C1666   1.402       .  A
C1665     Br1672   1.939       .  S
C1666      C1667   1.411       .  A
C1666     Br1671   1.938       .  S
C1668     Br1669   1.945       .  S
C1673      C1678   1.408       .  A
C1673     Br1680   1.933       .  S
C1674      C1675   1.420       .  A
C1675      C1676   1.407       .  A
C1675     Br1682   1.936       .  S
C1676      C1677   1.407       .  A
C1676     Br1681   1.928       .  S
C1678     Br1679   1.923       .  S
C1683      C1688   1.409       .  A
C1683     Br1690   1.936       .  S
C1684      C1685   1.407       .  A
C1685      C1686   1.408       .  A
C1685     Br1692   1.934       .  S
C1686      C1687   1.421       .  A
C1686     Br1691   1.930       .  S
C1688     Br1689   1.937       .  S
C1693      C1694   1.427       .  A
C1693      C1980   1.423       .  A
C1693      C2248   1.487       .  S
C1694      C1695   1.401       .  A
C1694      H1699   1.082       .  S
C1695      C1978   1.402       .  A
C1695      C1704   1.508       .  S
C1696      C1977   1.402       .  A
C1696      C1697   1.394   1_556  A
C1696      H1700   1.064       .  S
C1697      C1698   1.400       .  A
C1697      C1722   1.495       .  S
C1698      C1975   1.422       .  A
C1698      H1701   1.083       .  S
C1702      C1985   1.433       .  A
C1702      C1707   1.430       .  A
C1702      C1956   1.490       .  S
C1703      C1984   1.432       .  A
C1703      C1704   1.402       .  A
C1703      H1708   1.082       .  S
C1704      C1987   1.388       .  A
C1705      C1986   1.387   1_554  A
C1705      C1706   1.386   1_554  A
C1705      H1709   1.050       .  S
C1706      C1707   1.403       .  A
C1706      C1713   1.504       .  S
C1707      H1710   1.083       .  S
C1711      C1712   1.427       .  A
C1711      C1716   1.431       .  A
C1711      C1946   1.530       .  S
C1712      C1713   1.404   1_554  A
C1712      H1717   1.080       .  S
C1713      C1714   1.403       .  A
C1714      C1715   1.394   1_556  A
C1714      H1718   1.063       .  S
C1715      C1716   1.404       .  A
C1715      C1724   1.504       .  S
C1716      H1719   1.078       .  S
C1720      C1721   1.417       .  A
C1720      C1725   1.421   1_556  A
C1720      C1936   1.482       .  S
C1721      C1722   1.398   1_556  A
C1721      H1726   1.083       .  S
C1722      C1723   1.404       .  A
C1723      C1724   1.403       .  A
C1723      H1727   1.070       .  S
C1724      C1725   1.400       .  A
C1725      H1728   1.082       .  S
C1729      C1730   1.419       .  A
C1729      C1734   1.413       .  A
C1729      C1929   1.477       .  S
C1730      C1731   1.407       .  A
C1730      H1735   1.083       .  S
C1731      C1732   1.406       .  A
C1731      C1740   1.513       .  S
C1732      C1733   1.399       .  A
C1732      H1736   1.073       .  S
C1733      C1734   1.394       .  A
C1733      C1758   1.493       .  S
C1734      H1737   1.083       .  S
C1738      C1739   1.422       .  A
C1738      C1743   1.409       .  A
C1738      C1916   1.488       .  S
C1739      C1740   1.415       .  A
C1739      H1744   1.083       .  S
C1740      C1741   1.409       .  A
C1741      C1742   1.404       .  A
C1741      H1745   1.082       .  S
C1742      C1743   1.390       .  A
C1742      C1749   1.484       .  S
C1743      H1746   1.083       .  S
C1747      C1748   1.417       .  A
C1747      C1752   1.421       .  A
C1747      C1906   1.493       .  S
C1748      C1749   1.390       .  A
C1748      H1753   1.081       .  S
C1749      C1750   1.391       .  A
C1750      C1751   1.402       .  A
C1750      H1754   1.076       .  S
C1751      C1752   1.408       .  A
C1751      C1760   1.505       .  S
C1752      H1755   1.083       .  S
C1756      C1757   1.416       .  A
C1756      C1761   1.419       .  A
C1756      C1899   1.501       .  S
C1757      C1758   1.395       .  A
C1757      H1762   1.080       .  S
C1758      C1759   1.401       .  A
C1759      C1760   1.410       .  A
C1759      H1763   1.082       .  S
C1760      C1761   1.412       .  A
C1761      H1764   1.082       .  S
C1765      C1766   1.410       .  A
C1765      C1770   1.416       .  A
C1765      C1886   1.478       .  S
C1766      C1767   1.398       .  A
C1766      H1771   1.083       .  S
C1767      C1768   1.404       .  A
C1767      C1776   1.488       .  S
C1768      C1769   1.414       .  A
C1768      H1772   1.081       .  S
C1769      C1770   1.413       .  A
C1769      C1785   1.519       .  S
C1770      H1773   1.082       .  S
C1774      C1775   1.413       .  A
C1774      C1779   1.420       .  A
C1774      C1879   1.484       .  S
C1775      C1776   1.396       .  A
C1775      H1780   1.083       .  S
C1776      C1777   1.396       .  A
C1777      C1778   1.408       .  A
C1777      H1781   1.075       .  S
C1778      C1779   1.413       .  A
C1778      C1796   1.517       .  S
C1779      H1782   1.082       .  S
C1783      C1784   1.425       .  A
C1783      C1788   1.415       .  A
C1783      C1869   1.498       .  S
C1784      C1785   1.416       .  A
C1784      H1789   1.082       .  S
C1785      C1786   1.408       .  A
C1786      C1787   1.393       .  A
C1786      H1790   1.075       .  S
C1787      C1788   1.391       .  A
C1787      C1794   1.486       .  S
C1788      H1791   1.082       .  S
C1792      C1793   1.410       .  A
C1792      C1797   1.419       .  A
C1792      C1859   1.482       .  S
C1793      C1794   1.394       .  A
C1793      H1798   1.083       .  S
C1794      C1795   1.404       .  A
C1795      C1796   1.412       .  A
C1795      H1799   1.081       .  S
C1796      C1797   1.414       .  A
C1797      H1800   1.082       .  S
O1801      C1812   1.296       .  A
O1802      C1813   1.292   1_554  A
O1803      C1814   1.294       .  A
O1803     Zr2091   2.454       .  S
O1804      C1815   1.292       .  A
O1804     Zr1809   2.442   1_554  S
O1805      C1815   1.292       .  A
O1806      C1814   1.291       .  A
O1807      C1813   1.289       .  A
O1807     Zr1809   2.427       .  S
O1808      C1812   1.287       .  A
Zr1809     O2085   2.454       .  S
O1810     Zr1836   2.334       .  S
O1810     Zr1839   2.344       .  S
O1811     Zr1838   2.345       .  S
C1812      C1969   1.490       .  S
C1813      C1939   1.481       .  S
C1814      C1876   1.478       .  S
C1815      C1856   1.473       .  S
H1816      O1817   0.966       .  S
O1817     Zr2118   2.341       .  S
O1817     Zr1838   2.341       .  S
H1818      O1819   0.965       .  S
O1819     Zr1839   2.339       .  S
O1820      C1843   1.289       .  A
O1820     Zr1836   2.432       .  S
O1821      C1844   1.297       .  A
O1821     Zr1837   2.462       .  S
O1822      C1845   1.296       .  A
O1822     Zr1838   2.460       .  S
O1823      C1846   1.295       .  A
O1823     Zr1839   2.455       .  S
O1824      C1847   1.293       .  A
O1825      C1848   1.295       .  A
O1826      C1849   1.295       .  A
O1826     Zr2122   2.454       .  S
O1827      C1850   1.296       .  A
O1827     Zr1840   2.459       .  S
O1828      C1849   1.289       .  A
O1828     Zr1838   2.426       .  S
O1829      C1850   1.292       .  A
O1829     Zr1839   2.440       .  S
O1830      C1845   1.289       .  A
O1830     Zr2118   2.423       .  S
O1831      C1848   1.290       .  A
O1831     Zr2119   2.425       .  S
O1832      C1847   1.287       .  A
O1832     Zr1837   2.426   1_554  S
O1833      C1846   1.287       .  A
O1833     Zr1836   2.416       .  S
O1834      C1843   1.291       .  A
O1834     Zr1840   2.437       .  S
O1835      C1844   1.290       .  A
Zr1836     O2112   2.419   1_554  S
Zr1836     O2099   2.341   1_554  S
Zr1836     O2124   2.339   1_554  S
Zr1836     O1854   2.339       .  S
Zr1837     O2113   2.431       .  S
Zr1838     O1842   2.344       .  S
Zr1838     O1852   2.341       .  S
Zr1839     O1841   2.347       .  S
Zr1839     O1854   2.340       .  S
Zr1840     O2108   2.453   1_554  S
Zr1840     O1841   2.348       .  S
Zr1840     O2124   2.343   1_554  S
Zr1840     O1854   2.338       .  S
Zr1840     O2134   2.340   1_554  S
O1842     Zr2118   2.338       .  S
O1842     Zr2122   2.342       .  S
C1843      C1949   1.496       .  S
C1844      C1959   1.488       .  S
C1845      C1919   1.483       .  S
C1846      C1909   1.476       .  S
C1847      C1896   1.509       .  S
C1848      C1926   1.488       .  S
C1849      C1889   1.475       .  S
C1850      C1866   1.483       .  S
H1851      O1852   0.965       .  S
O1852     Zr2122   2.338       .  S
H1853      O1854   0.966       .  S
C1855      C1856   1.408       .  A
C1855      C1860   1.405       .  A
C1856      C1857   1.409       .  A
C1857      C1858   1.409       .  A
C1857     Br1864   1.930       .  S
C1858      C1859   1.413       .  A
C1858     Br1863   1.930       .  S
C1859      C1860   1.412       .  A
C1865      C1866   1.406       .  A
C1865      C1870   1.411       .  A
C1865     Br1872   1.926       .  S
C1866      C1867   1.408       .  A
C1867      C1868   1.409       .  A
C1867     Br1874   1.923       .  S
C1868      C1869   1.417       .  A
C1868     Br1873   1.934       .  S
C1869      C1870   1.420       .  A
C1870     Br1871   1.933       .  S
C1875      C1876   1.409       .  A
C1875      C1880   1.409       .  A
C1875     Br1882   1.931       .  S
C1876      C1877   1.410       .  A
C1877      C1878   1.410       .  A
C1877     Br1884   1.929       .  S
C1878      C1879   1.411       .  A
C1878     Br1883   1.929       .  S
C1879      C1880   1.411       .  A
C1880     Br1881   1.930       .  S
C1885      C1886   1.408       .  A
C1885      C1890   1.411       .  A
C1886      C1887   1.410       .  A
C1887      C1888   1.404       .  A
C1887     Br1894   1.932       .  S
C1888      C1889   1.408       .  A
C1888     Br1893   1.933       .  S
C1889      C1890   1.415       .  A
C1895      C1896   1.425       .  A
C1895      C1900   1.410       .  A
C1895     Br1902   1.936       .  S
C1896      C1897   1.427       .  A
C1897      C1898   1.406       .  A
C1897     Br1904   1.941       .  S
C1898      C1899   1.415       .  A
C1898     Br1903   1.937       .  S
C1899      C1900   1.415       .  A
C1900     Br1901   1.937       .  S
C1905      C1906   1.417       .  A
C1905      C1910   1.406       .  A
C1905     Br1912   1.934       .  S
C1906      C1907   1.420       .  A
C1907      C1908   1.405       .  A
C1907     Br1914   1.937       .  S
C1908      C1909   1.410       .  A
C1908     Br1913   1.932       .  S
C1909      C1910   1.406       .  A
C1910     Br1911   1.923       .  S
C1915      C1916   1.415       .  A
C1915      C1920   1.409       .  A
C1915     Br1922   1.933       .  S
C1916      C1917   1.412       .  A
C1917      C1918   1.407       .  A
C1917     Br1924   1.934       .  S
C1918      C1919   1.414       .  A
C1918     Br1923   1.932       .  S
C1919      C1920   1.410       .  A
C1920     Br1921   1.928       .  S
C1925      C1926   1.415       .  A
C1925      C1930   1.407       .  A
C1925     Br1932   1.933       .  S
C1926      C1927   1.421       .  A
C1927      C1928   1.408       .  A
C1927     Br1934   1.931       .  S
C1928      C1929   1.404       .  A
C1928     Br1933   1.932       .  S
C1929      C1930   1.410       .  A
C1930     Br1931   1.935       .  S
C1935      C1936   1.416   1_554  A
C1935      C1940   1.404       .  A
C1935     Br1942   1.937       .  S
C1936      C2219   1.409       .  A
C1937      C2218   1.409       .  A
C1937      C1938   1.408       .  A
C1937     Br1944   1.933       .  S
C1938      C2221   1.416       .  A
C1938     Br1943   1.930       .  S
C1939      C2220   1.416       .  A
C1939      C1940   1.411   1_556  A
C1940     Br1941   1.935       .  S
C1945      C2228   1.437       .  A
C1945      C1950   1.417       .  A
C1945     Br1952   1.944       .  S
C1946      C2227   1.437   1_554  A
C1946      C1947   1.427       .  A
C1947      C1948   1.402       .  A
C1947     Br1954   1.939       .  S
C1948      C1949   1.411       .  A
C1948     Br1953   1.938       .  S
C1949      C2232   1.416   1_554  A
C1950      C2231   1.415       .  A
C1950     Br1951   1.944       .  S
C1955      C2238   1.408       .  A
C1955      C1960   1.409       .  A
C1955     Br1962   1.932       .  S
C1956      C2237   1.410       .  A
C1956      C1957   1.420   1_556  A
C1957      C1958   1.408       .  A
C1957     Br1964   1.937       .  S
C1958      C1959   1.407   1_554  A
C1958     Br1963   1.928       .  S
C1959      C2242   1.416       .  A
C1960      C2241   1.415       .  A
C1960     Br1961   1.924       .  S
C1965      C2248   1.418       .  A
C1965      C1970   1.408       .  A
C1965     Br1972   1.936       .  S
C1966      C2247   1.418   1_554  A
C1966      C1967   1.406       .  A
C1966      C1975   1.486       .  S
C1967      C1968   1.407       .  A
C1967     Br1974   1.934       .  S
C1968      C1969   1.422       .  A
C1968     Br1973   1.930       .  S
C1969      C2252   1.413   1_554  A
C1970      C2251   1.413       .  A
C1970     Br1971   1.937       .  S
C1975      C1976   1.428       .  A
C1976      C1977   1.402   1_554  A
C1976      H1981   1.082       .  S
C1977      C1986   1.509       .  S
C1978      C1979   1.394       .  A
C1978      H1982   1.063       .  S
C1979      C1980   1.401       .  A
C1979      C2004   1.498       .  S
C1980      H1983   1.083       .  S
C1984      C1989   1.428       .  A
C1984      C2238   1.486       .  S
C1985      C1986   1.403       .  A
C1985      H1990   1.082       .  S
C1987      C1988   1.387       .  A
C1987      H1991   1.051       .  S
C1988      C1989   1.401       .  A
C1988      C1995   1.501       .  S
C1989      H1992   1.083       .  S
C1993      C1994   1.427       .  A
C1993      C1998   1.431       .  A
C1993      C2228   1.529       .  S
C1994      C1995   1.403       .  A
C1994      H1999   1.081       .  S
C1995      C1996   1.401       .  A
C1996      C1997   1.393       .  A
C1996      H2000   1.062       .  S
C1997      C1998   1.404       .  A
C1997      C2006   1.503       .  S
C1998      H2001   1.077       .  S
C2002      C2003   1.418       .  A
C2002      C2007   1.420       .  A
C2002      C2218   1.482       .  S
C2003      C2004   1.399       .  A
C2003      H2008   1.083       .  S
C2004      C2005   1.404       .  A
C2005      C2006   1.404       .  A
C2005      H2009   1.069       .  S
C2006      C2007   1.399       .  A
C2007      H2010   1.082       .  S
C2011      C2012   1.421       .  A
C2011      C2016   1.415       .  A
C2011      C2211   1.482       .  S
C2012      C2013   1.409       .  A
C2012      H2017   1.083       .  S
C2013      C2014   1.406       .  A
C2013      C2022   1.515       .  S
C2014      C2015   1.398       .  A
C2014      H2018   1.073       .  S
C2015      C2016   1.395       .  A
C2015      C2040   1.495       .  S
C2016      H2019   1.083       .  S
C2020      C2021   1.423       .  A
C2020      C2025   1.409       .  A
C2020      C2198   1.487       .  S
C2021      C2022   1.416       .  A
C2021      H2026   1.083       .  S
C2022      C2023   1.410       .  A
C2023      C2024   1.405       .  A
C2023      H2027   1.082       .  S
C2024      C2025   1.390       .  A
C2024      C2031   1.485       .  S
C2025      H2028   1.083       .  S
C2029      C2030   1.418       .  A
C2029      C2034   1.422       .  A
C2029      C2188   1.495       .  S
C2030      C2031   1.392       .  A
C2030      H2035   1.081       .  S
C2031      C2032   1.390       .  A
C2032      C2033   1.401       .  A
C2032      H2036   1.076       .  S
C2033      C2034   1.409       .  A
C2033      C2042   1.504       .  S
C2034      H2037   1.083       .  S
C2038      C2039   1.417       .  A
C2038      C2043   1.418       .  A
C2038      C2181   1.501       .  S
C2039      C2040   1.396       .  A
C2039      H2044   1.080       .  S
C2040      C2041   1.402       .  A
C2041      C2042   1.411       .  A
C2041      H2045   1.082       .  S
C2042      C2043   1.411       .  A
C2043      H2046   1.082       .  S
C2047      C2048   1.409       .  A
C2047      C2052   1.416       .  A
C2047      C2168   1.477       .  S
C2048      C2049   1.398       .  A
C2048      H2053   1.083       .  S
C2049      C2050   1.404       .  A
C2049      C2058   1.488       .  S
C2050      C2051   1.414       .  A
C2050      H2054   1.081       .  S
C2051      C2052   1.413       .  A
C2051      C2067   1.519       .  S
C2052      H2055   1.082       .  S
C2056      C2057   1.413       .  A
C2056      C2061   1.420       .  A
C2056      C2161   1.484       .  S
C2057      C2058   1.396       .  A
C2057      H2062   1.083       .  S
C2058      C2059   1.396       .  A
C2059      C2060   1.408       .  A
C2059      H2063   1.075       .  S
C2060      C2061   1.413       .  A
C2060      C2078   1.516       .  S
C2061      H2064   1.082       .  S
C2065      C2066   1.425       .  A
C2065      C2070   1.414       .  A
C2065      C2151   1.498       .  S
C2066      C2067   1.416       .  A
C2066      H2071   1.082       .  S
C2067      C2068   1.408       .  A
C2068      C2069   1.393       .  A
C2068      H2072   1.075       .  S
C2069      C2070   1.391       .  A
C2069      C2076   1.486       .  S
C2070      H2073   1.082       .  S
C2074      C2075   1.409       .  A
C2074      C2079   1.419       .  A
C2074      C2141   1.481       .  S
C2075      C2076   1.394       .  A
C2075      H2080   1.083       .  S
C2076      C2077   1.404       .  A
C2077      C2078   1.412       .  A
C2077      H2081   1.081       .  S
C2078      C2079   1.413       .  A
C2079      H2082   1.082       .  S
O2083      C2094   1.295       .  A
O2084      C2095   1.292       .  A
O2085      C2096   1.295       .  A
O2086      C2097   1.292       .  A
O2086     Zr2091   2.442       .  S
O2087      C2097   1.292       .  A
O2088      C2096   1.291       .  A
O2089      C2095   1.289       .  A
O2089     Zr2091   2.425       .  S
O2090      C2094   1.289       .  A
O2092     Zr2118   2.334       .  S
O2092     Zr2121   2.345       .  S
O2093     Zr2120   2.345       .  S
C2094      C2251   1.489       .  S
C2095      C2221   1.480       .  S
C2096      C2158   1.478       .  S
C2097      C2138   1.472       .  S
H2098      O2099   0.966       .  S
O2099     Zr2120   2.342       .  S
H2100      O2101   0.965       .  S
O2101     Zr2121   2.340       .  S
O2102      C2125   1.290       .  A
O2102     Zr2118   2.436       .  S
O2103      C2126   1.297       .  A
O2103     Zr2119   2.460       .  S
O2104      C2127   1.296       .  A
O2104     Zr2120   2.462       .  S
O2105      C2128   1.295       .  A
O2105     Zr2121   2.457       .  S
O2106      C2129   1.291       .  A
O2107      C2130   1.296       .  A
O2108      C2131   1.295       .  A
O2109      C2132   1.296       .  A
O2109     Zr2122   2.458       .  S
O2110      C2131   1.289       .  A
O2110     Zr2120   2.425       .  S
O2111      C2132   1.292       .  A
O2111     Zr2121   2.439       .  S
O2112      C2127   1.288       .  A
O2113      C2130   1.291       .  A
O2114      C2129   1.288       .  A
O2114     Zr2119   2.434       .  S
O2115      C2128   1.288       .  A
O2115     Zr2118   2.420       .  S
O2116      C2125   1.291       .  A
O2116     Zr2122   2.434       .  S
O2117      C2126   1.289       .  A
Zr2118     O2136   2.338       .  S
Zr2120     O2124   2.345       .  S
Zr2120     O2134   2.341       .  S
Zr2121     O2123   2.347       .  S
Zr2121     O2136   2.339       .  S
Zr2122     O2123   2.347       .  S
Zr2122     O2136   2.338       .  S
C2125      C2231   1.495       .  S
C2126      C2241   1.484       .  S
C2127      C2201   1.483       .  S
C2128      C2191   1.478       .  S
C2129      C2178   1.509       .  S
C2130      C2208   1.492       .  S
C2131      C2171   1.474       .  S
C2132      C2148   1.482       .  S
H2133      O2134   0.965       .  S
H2135      O2136   0.966       .  S
C2137      C2138   1.407       .  A
C2137      C2142   1.404       .  A
C2138      C2139   1.409       .  A
C2139      C2140   1.409       .  A
C2139     Br2146   1.930       .  S
C2140      C2141   1.413       .  A
C2140     Br2145   1.930       .  S
C2141      C2142   1.412       .  A
C2147      C2148   1.406       .  A
C2147      C2152   1.411       .  A
C2147     Br2154   1.927       .  S
C2148      C2149   1.408       .  A
C2149      C2150   1.409       .  A
C2149     Br2156   1.923       .  S
C2150      C2151   1.417       .  A
C2150     Br2155   1.934       .  S
C2151      C2152   1.420       .  A
C2152     Br2153   1.933       .  S
C2157      C2158   1.409       .  A
C2157      C2162   1.409       .  A
C2157     Br2164   1.931       .  S
C2158      C2159   1.410       .  A
C2159      C2160   1.410       .  A
C2159     Br2166   1.929       .  S
C2160      C2161   1.411       .  A
C2160     Br2165   1.929       .  S
C2161      C2162   1.411       .  A
C2162     Br2163   1.930       .  S
C2167      C2168   1.408       .  A
C2167      C2172   1.411       .  A
C2168      C2169   1.410       .  A
C2169      C2170   1.404       .  A
C2169     Br2176   1.932       .  S
C2170      C2171   1.408       .  A
C2170     Br2175   1.933       .  S
C2171      C2172   1.414       .  A
C2177      C2178   1.426       .  A
C2177      C2182   1.409       .  A
C2177     Br2184   1.937       .  S
C2178      C2179   1.425       .  A
C2179      C2180   1.407       .  A
C2179     Br2186   1.940       .  S
C2180      C2181   1.416       .  A
C2180     Br2185   1.937       .  S
C2181      C2182   1.414       .  A
C2182     Br2183   1.937       .  S
C2187      C2188   1.418       .  A
C2187      C2192   1.406       .  A
C2187     Br2194   1.934       .  S
C2188      C2189   1.420       .  A
C2189      C2190   1.406       .  A
C2189     Br2196   1.937       .  S
C2190      C2191   1.410       .  A
C2190     Br2195   1.932       .  S
C2191      C2192   1.406       .  A
C2192     Br2193   1.923       .  S
C2197      C2198   1.415       .  A
C2197      C2202   1.410       .  A
C2197     Br2204   1.933       .  S
C2198      C2199   1.411       .  A
C2199      C2200   1.407       .  A
C2199     Br2206   1.935       .  S
C2200      C2201   1.415       .  A
C2200     Br2205   1.931       .  S
C2201      C2202   1.410       .  A
C2202     Br2203   1.928       .  S
C2207      C2208   1.416       .  A
C2207      C2212   1.408       .  A
C2207     Br2214   1.933       .  S
C2208      C2209   1.421       .  A
C2209      C2210   1.410       .  A
C2209     Br2216   1.932       .  S
C2210      C2211   1.405       .  A
C2210     Br2215   1.932       .  S
C2211      C2212   1.411       .  A
C2212     Br2213   1.935       .  S
C2217      C2218   1.415       .  A
C2217      C2222   1.404       .  A
C2217     Br2224   1.937       .  S
C2219      C2220   1.408       .  A
C2219     Br2226   1.933       .  S
C2220     Br2225   1.930       .  S
C2221      C2222   1.411       .  A
C2222     Br2223   1.935       .  S
C2227      C2232   1.418       .  A
C2227     Br2234   1.943       .  S
C2228      C2229   1.426       .  A
C2229      C2230   1.402       .  A
C2229     Br2236   1.938       .  S
C2230      C2231   1.411       .  A
C2230     Br2235   1.938       .  S
C2232     Br2233   1.945       .  S
C2237      C2242   1.410       .  A
C2237     Br2244   1.932       .  S
C2238      C2239   1.419       .  A
C2239      C2240   1.407       .  A
C2239     Br2246   1.936       .  S
C2240      C2241   1.407       .  A
C2240     Br2245   1.930       .  S
C2242     Br2243   1.924       .  S
C2247      C2252   1.408       .  A
C2247     Br2254   1.937       .  S
C2248      C2249   1.407       .  A
C2249      C2250   1.408       .  A
C2249     Br2256   1.934       .  S
C2250      C2251   1.420       .  A
C2250     Br2255   1.929       .  S
C2252     Br2253   1.937       .  S
