geometry optimzed in LAMMPS
_audit_creation_date              2020-11-30 
_audit_creation_method            'lammps2cif' 
_symmetry_space_group_name_H-M    'P1' 
_symmetry_Int_Tables_number       1 
_symmetry_cell_setting            triclinic 
loop_ 
_symmetry_equiv_pos_as_xyz 
  x,y,z 
_cell_length_a                    25.526639507565157 
_cell_length_b                    25.372433270326237 
_cell_length_c                    25.257944869368202 
_cell_angle_alpha                 90.15693831478207 
_cell_angle_beta                  90.02333881686815 
_cell_angle_gamma                 89.81420438435433 
loop_ 
_atom_site_label 
_atom_site_type_symbol 
_atom_site_fract_x 
_atom_site_fract_y 
_atom_site_fract_z 
_atom_site_charge 
C1          C  0.73235570  0.72687077  0.00122139     0.03630
C2          C  0.74612895  0.67308281  0.99710907    -0.12520
C3          C  0.70735756  0.63419589  0.99872405     0.01130
C4          C  0.65454136  0.64879685  0.99915123    -0.11050
C5          C  0.64008162  0.70184386  0.00007431     0.03620
C6          C  0.67875689  0.74073476  0.00303459    -0.10470
H7          H  0.78675893  0.66118118  0.99383315     0.09220
H8          H  0.62449017  0.61866021  0.99895569     0.06740
H9          H  0.66685719  0.78162071  0.00636854     0.06590
C10         C  0.72630498  0.31880111  0.98100415     0.03630
C11         C  0.74042860  0.37201773  0.98720882    -0.12520
C12         C  0.70192712  0.41128421  0.98814455     0.01130
C13         C  0.64914888  0.39756151  0.98391120    -0.11050
C14         C  0.63412413  0.34489640  0.97744996     0.03620
C15         C  0.67279089  0.30538529  0.97667502    -0.10470
H16         H  0.78120059  0.38291060  0.99172880     0.09220
H17         H  0.61952226  0.42828851  0.98511854     0.06740
H18         H  0.66135350  0.26456166  0.97189715     0.06590
C19         C  0.31914690  0.32300657  0.00042790     0.03630
C20         C  0.37215209  0.30906249  0.99192035    -0.12520
C21         C  0.41132673  0.34783174  0.99186344     0.01130
C22         C  0.39724106  0.40071820  0.99905415    -0.11050
C23         C  0.34510743  0.41534695  0.00724948     0.03620
C24         C  0.30625449  0.37647031  0.00943228    -0.10470
H25         H  0.38291999  0.26834634  0.98465198     0.09220
H26         H  0.42715098  0.43097423  0.99787762     0.06740
H27         H  0.26606813  0.38807225  0.01693773     0.06590
C28         C  0.32545999  0.73174502  0.00917342     0.03630
C29         C  0.37901668  0.74400705  0.00250216    -0.12520
C30         C  0.41761703  0.70515126  0.00934292     0.01130
C31         C  0.40295575  0.65290676  0.01799476    -0.11050
C32         C  0.35013334  0.63918971  0.02097640     0.03620
C33         C  0.31162193  0.67855039  0.01806931    -0.10470
H34         H  0.39112504  0.78355309  0.99248144     0.09220
H35         H  0.43279255  0.62249288  0.02070262     0.06740
H36         H  0.27102821  0.66717833  0.02241204     0.06590
C37         C  0.72698875  0.02493491  0.70684052     0.03630
C38         C  0.67819600  0.01044429  0.72787505    -0.12520
C39         C  0.63911749  0.99095238  0.69461895     0.01130
C40         C  0.65013622  0.98289118  0.64108324    -0.11050
C41         C  0.69408603  0.00653441  0.61735011     0.03620
C42         C  0.73372031  0.02573848  0.65134751    -0.10470
H43         H  0.67051391  0.01398254  0.76991312     0.09220
H44         H  0.62091861  0.96317621  0.61731526     0.06740
H45         H  0.76957343  0.04186163  0.63553784     0.06590
C46         C  0.32591124  0.02104026  0.70562410     0.03630
C47         C  0.31559277  0.02325897  0.65059860    -0.12520
C48         C  0.35593927  0.01560607  0.61351618     0.01130
C49         C  0.40762470  0.01047017  0.63150850    -0.11050
C50         C  0.41874125  0.00847236  0.68559492     0.03620
C51         C  0.37783039  0.01137343  0.72241042    -0.10470
H52         H  0.27620115  0.03009824  0.63627307     0.09220
H53         H  0.43946180  0.00749352  0.60322181     0.06740
H54         H  0.38695126  0.00686457  0.76399149     0.06590
C55         C  0.32276148  0.02722831  0.29459577     0.03630
C56         C  0.31178857  0.02207078  0.34916677    -0.12520
C57         C  0.35203538  0.02706883  0.38673609     0.01130
C58         C  0.40323809  0.03647464  0.36972009    -0.11050
C59         C  0.41475352  0.04135522  0.31590077     0.03620
C60         C  0.37452709  0.03767365  0.27847075    -0.10470
H61         H  0.27233068  0.01369283  0.36240829     0.09220
H62         H  0.43457912  0.03924656  0.39861278     0.06740
H63         H  0.38370303  0.04290915  0.23695368     0.06590
C64         C  0.72527610  0.02313790  0.29403569     0.03630
C65         C  0.73472700  0.01989386  0.34930041    -0.12520
C66         C  0.69486288  0.03324734  0.38596125     0.01130
C67         C  0.64715762  0.05223548  0.36535886    -0.11050
C68         C  0.63482877  0.04729165  0.31181047     0.03620
C69         C  0.67337669  0.03038261  0.27660680    -0.10470
H70         H  0.77269261  0.00744845  0.36326494     0.09220
H71         H  0.61730633  0.06780667  0.39149719     0.06740
H72         H  0.66341610  0.02575730  0.23517658     0.06590
C73         C  0.02658404  0.32154243  0.70603046     0.03630
C74         C  0.02461727  0.37561191  0.71814285    -0.12520
C75         C  0.02908707  0.41283850  0.67750623     0.01130
C76         C  0.03492889  0.39574428  0.62513542    -0.11050
C77         C  0.03622163  0.34202570  0.61279352     0.03620
C78         C  0.03168495  0.30479061  0.65323504    -0.10470
H79         H  0.02134087  0.38854112  0.75893938     0.09220
H80         H  0.03844549  0.42453146  0.59366132     0.06740
H81         H  0.03315468  0.26309998  0.64386163     0.06590
C82         C  0.02502973  0.72904862  0.70447674     0.03630
C83         C  0.02648896  0.67531213  0.71753920    -0.12520
C84         C  0.03263011  0.63742278  0.67765962     0.01130
C85         C  0.03715642  0.65346585  0.62485368    -0.11050
C86         C  0.03625436  0.70701527  0.61149863     0.03620
C87         C  0.02959364  0.74485491  0.65144244    -0.10470
H88         H  0.02399477  0.66320178  0.75857824     0.09220
H89         H  0.04161403  0.62403061  0.59394701     0.06740
H90         H  0.02929243  0.78639026  0.64152702     0.06590
C91         C  0.01987070  0.32126121  0.29749923     0.03630
C92         C  0.03115715  0.30700733  0.34993603    -0.12520
C93         C  0.03223165  0.34536966  0.38965134     0.01130
C94         C  0.02497281  0.39835465  0.37662770    -0.11050
C95         C  0.01412333  0.41368043  0.32441701     0.03620
C96         C  0.01147062  0.37471060  0.28474777    -0.10470
H97         H  0.03802200  0.26605995  0.35999896     0.09220
H98         H  0.02635538  0.42775585  0.40785136     0.06740
H99         H  0.00184520  0.38546442  0.24447580     0.06590
C100        C  0.02275681  0.72890513  0.29417639     0.03630
C101        C  0.03198256  0.74568978  0.34641400    -0.12520
C102        C  0.02826518  0.70990708  0.38827943     0.01130
C103        C  0.01820090  0.65677952  0.37745996    -0.11050
C104        C  0.00881047  0.63917086  0.32561780     0.03620
C105        C  0.01086318  0.67569785  0.28391185    -0.10470
H106        H  0.04127459  0.78659122  0.35444463     0.09220
H107        H  0.01792263  0.62887731  0.40989553     0.06740
H108        H  0.00370752  0.66280311  0.24362771     0.06590
O109        O  0.93917079  0.87558376  0.99844034    -0.79630
O110        O  0.93701187  0.17522490  0.99620425    -0.81190
O111        O  0.87710754  0.02056313  0.08825346    -0.78200
O112        O  0.87568317  0.02899718  0.91217486    -0.76590
O113        O  0.93956169  0.02855302  0.84856975    -0.78380
O114        O  0.94040115  0.02021018  0.15223579    -0.79310
O115        O  0.87427729  0.11111847  0.99919434    -0.80640
O116        O  0.87530357  0.93899161  0.99829494    -0.80930
Eu117      Eu  0.91829561  0.02521174  0.99986212     2.39200
O118        O  0.97162450  0.07818502  0.94636128    -0.88440
O119        O  0.97190873  0.97217812  0.05329479    -0.92040
C120        C  0.89078413  0.89054501  0.99771136     1.02650
C121        C  0.88882840  0.15966369  0.99680694     1.02470
C122        C  0.89228961  0.01867506  0.13712907     1.02410
C123        C  0.89124650  0.02947377  0.86346126     1.00270
H124        H  0.94851461  0.10113465  0.07622023     0.30020
O125        O  0.97063691  0.07936217  0.05408740    -1.00820
H126        H  0.94975065  0.95000652  0.92301014     0.30050
O127        O  0.97145747  0.97183492  0.94537103    -1.03370
O128        O  0.11039330  0.17541615  0.00205122    -0.80590
O129        O  0.11118775  0.87541785  0.99885646    -0.80130
O130        O  0.02389634  0.11310001  0.15019094    -0.78570
O131        O  0.02359385  0.11187192  0.84904028    -0.81910
O132        O  0.02658376  0.93774999  0.84947024    -0.79760
O133        O  0.02474602  0.93856602  0.15010260    -0.78410
O134        O  0.17401883  0.02497948  0.08686066    -0.79930
O135        O  0.17367385  0.02476190  0.91164732    -0.81860
O136        O  0.11048314  0.02657519  0.15057579    -0.78600
O137        O  0.11033135  0.02659752  0.84780206    -0.81270
O138        O  0.02420614  0.17645443  0.08580950    -0.77010
O139        O  0.02234573  0.87492306  0.08555088    -0.77040
O140        O  0.02596394  0.87429046  0.91389830    -0.76680
O141        O  0.02219877  0.17583498  0.91334791    -0.80180
O142        O  0.17428933  0.11198786  0.00245297    -0.79600
O143        O  0.17433717  0.93883178  0.99890900    -0.77930
Eu144      Eu  0.02393831  0.13233474  0.99974970     2.39770
Eu145      Eu  0.02507069  0.91892242  0.99946517     2.39570
Eu146      Eu  0.02486620  0.02562915  0.10708306     2.38400
Eu147      Eu  0.02509616  0.02532895  0.89227676     2.39880
Eu148      Eu  0.13125203  0.02553326  0.99946177     2.39790
O149        O  0.07845614  0.97180480  0.94565964    -0.92350
O150        O  0.07755407  0.07892224  0.05314443    -0.91240
C151        C  0.15885326  0.16048961  0.00354179     1.02820
C152        C  0.15945761  0.89021466  0.99884230     1.01540
C153        C  0.02440134  0.16154960  0.13448443     1.00930
C154        C  0.02223404  0.16027016  0.86474452     1.02940
C155        C  0.02678507  0.88937841  0.86531942     1.01860
C156        C  0.02278635  0.89018439  0.13425080     1.00710
C157        C  0.15872682  0.02599501  0.13563190     1.00770
C158        C  0.15859920  0.02525370  0.86273553     1.03380
H159        H  0.10022778  0.94986059  0.07550639     0.30750
O160        O  0.07845447  0.97197231  0.05348169    -1.04510
H161        H  0.09979874  0.10156504  0.92394023     0.32800
O162        O  0.07807370  0.07941729  0.94582166    -1.07070
C163        C  0.06792655  0.83652305  0.20091788    -0.11770
C164        C  0.02104107  0.84890953  0.17483938     0.05240
C165        C  0.97481869  0.82011134  0.18616298    -0.07060
C166        C  0.97750049  0.77973294  0.22420565    -0.07800
C167        C  0.02435898  0.76769439  0.25063966    -0.02350
C168        C  0.07053243  0.79571937  0.23823213     0.04470
N169        N  0.12028943  0.78253070  0.26189042     0.66970
H170        H  0.10317072  0.85802486  0.19088103     0.15870
H171        H  0.94240072  0.75824197  0.23466141     0.15580
N172        N  0.92506330  0.83158530  0.16100329     0.74680
O173        O  0.15620543  0.81654782  0.26451051    -0.38770
O174        O  0.13069892  0.73560287  0.27478788    -0.38720
O175        O  0.91815344  0.87306413  0.13438357    -0.39420
O176        O  0.88633531  0.80157708  0.16814365    -0.39490
C177        C  0.96871505  0.49716348  0.34759695    -0.11770
C178        C  0.00375378  0.47048127  0.31400064     0.05240
C179        C  0.03337044  0.49993908  0.27745433    -0.07060
C180        C  0.03141021  0.55526805  0.27898885    -0.07800
C181        C  0.99982269  0.58198021  0.31602010    -0.02350
C182        C  0.96599769  0.55234508  0.34891039     0.04470
N183        N  0.93004719  0.57751497  0.38497873     0.66970
H184        H  0.94455073  0.47464486  0.37454388     0.15870
H185        H  0.05733807  0.57738328  0.25343181     0.15580
N186        N  0.06879803  0.47462196  0.24164180     0.74680
O187        O  0.90674157  0.61951862  0.37204444    -0.38770
O188        O  0.91885037  0.55601880  0.42855386    -0.38720
O189        O  0.05229313  0.45920779  0.19713800    -0.39420
O190        O  0.11749578  0.47799073  0.24944818    -0.39490
C191        C  0.98257751  0.20336583  0.21211580    -0.11770
C192        C  0.02353564  0.20315772  0.17523447     0.05240
C193        C  0.06252182  0.24246127  0.17808805    -0.07060
C194        C  0.06030318  0.28020825  0.21864595    -0.07800
C195        C  0.01943781  0.28035710  0.25573935    -0.02350
C196        C  0.97959852  0.24176530  0.25208202     0.04470
N197        N  0.93483047  0.24205009  0.28659788     0.66970
H198        H  0.95233290  0.17356435  0.20947746     0.15870
H199        H  0.09066008  0.30990009  0.22115988     0.15580
N200        N  0.10536258  0.24376268  0.14138448     0.74680
O201        O  0.88995884  0.23234191  0.26799816    -0.38770
O202        O  0.94068966  0.24336347  0.33614819    -0.38720
O203        O  0.09670055  0.25268227  0.09304454    -0.39420
O204        O  0.15170860  0.24681082  0.15853802    -0.39490
C205        C  0.99878036  0.74611336  0.53010078    -0.11770
C206        C  0.04155642  0.72211872  0.55526733     0.05240
C207        C  0.08465183  0.70455704  0.52475594    -0.07060
C208        C  0.08126883  0.70632939  0.46939988    -0.07800
C209        C  0.03637909  0.72577642  0.44399834    -0.02350
C210        C  0.99549407  0.74832435  0.47457656     0.04470
N211        N  0.94893661  0.76968405  0.45040640     0.66970
H212        H  0.96618335  0.76002264  0.55385953     0.15870
H213        H  0.11260328  0.68958279  0.44571708     0.15580
N214        N  0.13081757  0.68282685  0.54933916     0.74680
O215        O  0.90577555  0.76847936  0.47477502    -0.38770
O216        O  0.95180213  0.79563086  0.40797852    -0.38720
O217        O  0.15849659  0.64918358  0.52515798    -0.39420
O218        O  0.14653242  0.70027581  0.59341185    -0.39490
C219        C  0.07203213  0.78882397  0.76414714    -0.11770
C220        C  0.02381829  0.76893146  0.74677439     0.05240
C221        C  0.97658980  0.78783006  0.76930446    -0.07060
C222        C  0.97949110  0.82708272  0.80845887    -0.07800
C223        C  0.02764581  0.84774053  0.82503303    -0.02350
C224        C  0.07495595  0.82769186  0.80365541     0.04470
N225        N  0.12583519  0.84545132  0.82133597     0.66970
H226        H  0.10776213  0.77324759  0.74689509     0.15870
H227        H  0.94382768  0.84139511  0.82679954     0.15580
N228        N  0.92582177  0.76870871  0.75293693     0.74680
O229        O  0.16598105  0.83671966  0.79340264    -0.38770
O230        O  0.13169202  0.86777548  0.86565741    -0.38720
O231        O  0.92054613  0.72358846  0.73251207    -0.39420
O232        O  0.88519299  0.79581223  0.76197193    -0.39490
C233        C  0.99566600  0.31099417  0.53020091    -0.11770
C234        C  0.04123965  0.32647733  0.55682092     0.05240
C235        C  0.08674512  0.33926695  0.52769959    -0.07060
C236        C  0.08356748  0.34159529  0.47227474    -0.07800
C237        C  0.03646039  0.33103117  0.44589513    -0.02350
C238        C  0.99229949  0.31384068  0.47487413     0.04470
N239        N  0.94280736  0.30322963  0.44966571     0.66970
H240        H  0.96083336  0.30190124  0.55290838     0.15870
H241        H  0.11729953  0.35397308  0.44949364     0.15580
N242        N  0.13530637  0.35217145  0.55387318     0.74680
O243        O  0.91258377  0.26886036  0.46871571    -0.38770
O244        O  0.92613130  0.33235642  0.41284250    -0.38720
O245        O  0.14546930  0.33411805  0.59928524    -0.39420
O246        O  0.17020338  0.37798619  0.52993359    -0.39490
C247        C  0.99046458  0.55466383  0.70725714    -0.11770
C248        C  0.03574617  0.58069520  0.69000801     0.05240
C249        C  0.08065111  0.55116783  0.67607280    -0.07060
C250        C  0.07759181  0.49614844  0.67519847    -0.07800
C251        C  0.03113681  0.46995036  0.68838726    -0.02350
C252        C  0.98722958  0.49930398  0.70622233     0.04470
N253        N  0.93844293  0.47443486  0.72005899     0.66970
H254        H  0.95610307  0.57771665  0.71751670     0.15870
H255        H  0.11139072  0.47331458  0.66271110     0.15580
N256        N  0.12893591  0.57649948  0.66146061     0.74680
O257        O  0.90797016  0.49627372  0.75288177    -0.38770
O258        O  0.92299131  0.43374600  0.69587000    -0.38720
O259        O  0.14242400  0.61916205  0.68332550    -0.39420
O260        O  0.16054783  0.55396878  0.63024977    -0.39490
C261        C  0.97789948  0.26633473  0.76934593    -0.11770
C262        C  0.02626578  0.28223309  0.74868050     0.05240
C263        C  0.07306780  0.25791646  0.76618212    -0.07060
C264        C  0.06985688  0.21731667  0.80354139    -0.07800
C265        C  0.02156004  0.20112344  0.82395255    -0.02350
C266        C  0.97461134  0.22566049  0.80687252     0.04470
N267        N  0.92378341  0.20978862  0.82624137     0.66970
H268        H  0.94243035  0.28499053  0.75491777     0.15870
H269        H  0.10545242  0.19866328  0.81771333     0.15580
N270        N  0.12380438  0.27385793  0.74691542     0.74680
O271        O  0.88467161  0.23989575  0.82076965    -0.38770
O272        O  0.91656607  0.16438301  0.84515069    -0.38720
O273        O  0.13218369  0.32092858  0.73333250    -0.39420
O274        O  0.16194670  0.24207114  0.74826798    -0.39490
C275        C  0.80633774  0.04814179  0.16976095    -0.11770
C276        C  0.85103560  0.01752967  0.17846590     0.05240
C277        C  0.85490725  0.98830591  0.22605915    -0.07060
C278        C  0.81298096  0.98910447  0.26228568    -0.07800
C279        C  0.76875608  0.02143954  0.25419901    -0.02350
C280        C  0.76686791  0.05281429  0.20769180     0.04470
N281        N  0.72725661  0.09229976  0.19958780     0.66970
H282        H  0.80359057  0.07135434  0.13416484     0.15870
H283        H  0.81558943  0.96467192  0.29724236     0.15580
N284        N  0.90023444  0.95704538  0.23815205     0.74680
O285        O  0.71906797  0.12698238  0.23457923    -0.38770
O286        O  0.70542404  0.09678690  0.15495254    -0.38720
O287        O  0.94306637  0.97962182  0.24834017    -0.39420
O288        O  0.89444228  0.90963916  0.25191278    -0.39490
C289        C  0.55356250  0.01028874  0.27436647    -0.11770
C290        C  0.57961831  0.05429035  0.29526017     0.05240
C291        C  0.55016188  0.09852560  0.31234041    -0.07060
C292        C  0.49545170  0.09449107  0.31501685    -0.07800
C293        C  0.46987642  0.04799368  0.30008857    -0.02350
C294        C  0.49889301  0.00620934  0.27729253     0.04470
N295        N  0.47448316  0.95751850  0.26203114     0.66970
H296        H  0.57608707  0.97629953  0.26152191     0.15870
H297        H  0.47264821  0.12682753  0.33120822     0.15580
N298        N  0.57541633  0.14630992  0.32963206     0.74680
O299        O  0.49065112  0.93288431  0.22169829    -0.38770
O300        O  0.44275196  0.93508219  0.29288357    -0.38720
O301        O  0.61949088  0.15919259  0.31113733    -0.39420
O302        O  0.55227636  0.17765336  0.36079168    -0.39490
C303        C  0.24672145  0.99868184  0.16761060    -0.11770
C304        C  0.19957562  0.02557231  0.17732361     0.05240
C305        C  0.19247532  0.05110065  0.22661900    -0.07060
C306        C  0.23288425  0.05066760  0.26408119    -0.07800
C307        C  0.28004203  0.02357397  0.25458643    -0.02350
C308        C  0.28635756  0.99607388  0.20600814     0.04470
N309        N  0.33133370  0.96337037  0.19591959     0.66970
H310        H  0.25192370  0.97761474  0.13058137     0.15870
H311        H  0.22747480  0.07233717  0.30071657     0.15580
N312        N  0.14521377  0.07907839  0.23878920     0.74680
O313        O  0.34753281  0.93198910  0.23102282    -0.38770
O314        O  0.35023925  0.96029736  0.14981890    -0.38720
O315        O  0.10629337  0.05418840  0.25655509    -0.39420
O316        O  0.14596137  0.12869203  0.24229141    -0.39490
C317        C  0.31827471  0.05453599  0.53097099    -0.11770
C318        C  0.34520473  0.01293744  0.55568218     0.05240
C319        C  0.36690901  0.97217497  0.52409385    -0.07060
C320        C  0.36608351  0.97708426  0.46887370    -0.07800
C321        C  0.34275187  0.02062211  0.44416468    -0.02350
C322        C  0.31679000  0.05913252  0.47539068     0.04470
N323        N  0.29121753  0.10420448  0.45212339     0.66970
H324        H  0.30143075  0.08558530  0.55514986     0.15870
H325        H  0.38471935  0.94705991  0.44468254     0.15580
N326        N  0.39024948  0.92596639  0.54741298     0.74680
O327        O  0.25323697  0.12598021  0.47568216    -0.38770
O328        O  0.30887766  0.12524614  0.41059705    -0.38720
O329        O  0.37091434  0.90595141  0.58871247    -0.39420
O330        O  0.42701029  0.90200467  0.52400239    -0.39490
C331        C  0.23286499  0.00495823  0.73273277    -0.11770
C332        C  0.28226435  0.02608341  0.74513336     0.05240
C333        C  0.28923187  0.04948496  0.79576233    -0.07060
C334        C  0.24894408  0.04672069  0.83341716    -0.07800
C335        C  0.19991530  0.02493571  0.82113708    -0.02350
C336        C  0.19142421  0.00547834  0.76914690     0.04470
N337        N  0.14160392  0.98543812  0.75227188     0.66970
H338        H  0.22631987  0.98630152  0.69473104     0.15870
H339        H  0.25521190  0.06436373  0.87201894     0.15580
N340        N  0.33528351  0.07918362  0.80867985     0.74680
O341        O  0.12355241  0.99819924  0.70754222    -0.38770
O342        O  0.11974401  0.94896044  0.77772692    -0.38720
O343        O  0.35169805  0.11381954  0.77706791    -0.39420
O344        O  0.35460650  0.07678447  0.85464315    -0.39490
C345        C  0.74389975  0.01873840  0.53063564    -0.11770
C346        C  0.69587717  0.01356579  0.55799091     0.05240
C347        C  0.64917726  0.01594063  0.52756034    -0.07060
C348        C  0.65198991  0.01457278  0.47259901    -0.07800
C349        C  0.69882033  0.02492162  0.44511000    -0.02350
C350        C  0.74563849  0.02814136  0.47542486     0.04470
N351        N  0.79438874  0.04402320  0.45225755     0.66970
H352        H  0.78042892  0.01814887  0.55225503     0.15870
H353        H  0.61552695  0.00915693  0.45156022     0.15580
N354        N  0.59869616  0.02582509  0.55089727     0.74680
O355        O  0.79632791  0.08530409  0.42453392    -0.38770
O356        O  0.83664712  0.02237241  0.46663200    -0.38720
O357        O  0.59291639  0.06375500  0.58285467    -0.39420
O358        O  0.55861425  0.00222650  0.53374625    -0.39490
C359        C  0.49656597  0.95475304  0.70828788    -0.11770
C360        C  0.47394682  0.00494804  0.70262527     0.05240
C361        C  0.50613824  0.05025369  0.70416109    -0.07060
C362        C  0.56042246  0.04357646  0.70924009    -0.07800
C363        C  0.58344867  0.99336037  0.71027978    -0.02350
C364        C  0.55128530  0.94818198  0.71173463     0.04470
N365        N  0.57349239  0.89592556  0.71453716     0.66970
H366        H  0.47144245  0.92043766  0.70692223     0.15870
H367        H  0.58559887  0.07786613  0.70753909     0.15580
N368        N  0.48531204  0.10267281  0.69642128     0.74680
O369        O  0.54618930  0.85616683  0.70276441    -0.38770
O370        O  0.61910487  0.88879381  0.73256362    -0.38720
O371        O  0.43855007  0.11367442  0.70829505    -0.39420
O372        O  0.51455099  0.13918364  0.67994748    -0.39490
C373        C  0.80654108  0.06319848  0.82824540    -0.11770
C374        C  0.85082860  0.03091927  0.82141519     0.05240
C375        C  0.85652836  0.00189421  0.77381691    -0.07060
C376        C  0.81723146  0.00463025  0.73524518    -0.07800
C377        C  0.77175053  0.03477736  0.74306974    -0.02350
C378        C  0.76721582  0.06626403  0.78930031     0.04470
N379        N  0.72385421  0.10202150  0.79677391     0.66970
H380        H  0.80316878  0.08700278  0.86377955     0.15870
H381        H  0.82045326  0.97973040  0.70044578     0.15580
N382        N  0.89969629  0.96633535  0.76557742     0.74680
O383        O  0.71043271  0.11613255  0.84280816    -0.38770
O384        O  0.70228758  0.12381670  0.75747814    -0.38720
O385        O  0.91319917  0.93494149  0.80177816    -0.39420
O386        O  0.91893166  0.96053548  0.71987598    -0.39490
C387        C  0.23484933  0.76057681  0.98338608    -0.11770
C388        C  0.28375910  0.77347012  0.00574345     0.05240
C389        C  0.29109637  0.82561933  0.02484373    -0.07060
C390        C  0.25056711  0.86271165  0.02024765    -0.07800
C391        C  0.20113722  0.84902922  0.00011913    -0.02350
C392        C  0.19322803  0.79673932  0.98221400     0.04470
N393        N  0.14333596  0.77904358  0.96333908     0.66970
H394        H  0.22815739  0.72159880  0.96728114     0.15870
H395        H  0.25712592  0.90214991  0.03540604     0.15580
N396        N  0.33786216  0.84121110  0.05204489     0.74680
O397        O  0.13983529  0.75959115  0.91743814    -0.38770
O398        O  0.10727464  0.77013683  0.99628399    -0.38720
O399        O  0.35938522  0.88456083  0.04104748    -0.39220
O400        O  0.35258536  0.81624958  0.09256186    -0.39490
C401        C  0.33031020  0.49616245  0.06047673    -0.11770
C402        C  0.33247804  0.47215273  0.01038730     0.05240
C403        C  0.33351807  0.50384888  0.96441426    -0.07060
C404        C  0.33477185  0.55875436  0.97012005    -0.07800
C405        C  0.33615210  0.58279131  0.02007427    -0.02350
C406        C  0.33250825  0.55145989  0.06635299     0.04470
N407        N  0.33329900  0.57419685  0.11896300     0.66970
H408        H  0.33021108  0.47122992  0.09522652     0.15870
H409        H  0.33756132  0.58324329  0.93513003     0.15580
N410        N  0.33651685  0.48119167  0.91203306     0.74680
O411        O  0.33430125  0.54476091  0.15919435    -0.38770
O412        O  0.33075774  0.62340215  0.12602858    -0.38720
O413        O  0.31721494  0.43648912  0.90235822    -0.39420
O414        O  0.35536355  0.50741599  0.87416593    -0.39490
C415        C  0.28664987  0.23445512  0.02806235    -0.11770
C416        C  0.27762950  0.28159890  0.00035577     0.05240
C417        C  0.22872148  0.28875421  0.97468279    -0.07060
C418        C  0.19023010  0.24957778  0.97841476    -0.07800
C419        C  0.19956212  0.20221682  0.00544310    -0.02350
C420        C  0.24839340  0.19488984  0.03111110     0.04470
N421        N  0.25909590  0.14883053  0.06230560     0.66970
H422        H  0.32328291  0.22898733  0.04906089     0.15870
H423        H  0.15348973  0.25512618  0.95760440     0.15580
N424        N  0.21848067  0.33377722  0.94194536     0.74680
O425        O  0.30418911  0.12823600  0.06166831    -0.38770
O426        O  0.22621462  0.13343191  0.09617474    -0.38720
O427        O  0.25135123  0.34728515  0.90728870    -0.39420
O428        O  0.17363267  0.35491841  0.94193525    -0.39490
C429        C  0.55269279  0.30331017  0.01170679    -0.11770
C430        C  0.57750045  0.33290798  0.97212224     0.05240
C431        C  0.54663597  0.35942087  0.93399960    -0.07060
C432        C  0.49207630  0.36035595  0.93988514    -0.07800
C433        C  0.46736263  0.33521855  0.98246840    -0.02350
C434        C  0.49780801  0.30442174  0.01779244     0.04470
N435        N  0.47470624  0.27736662  0.06199580     0.66970
H436        H  0.57644622  0.28318194  0.04096968     0.15870
H437        H  0.46853625  0.38263209  0.91203022     0.15580
N438        N  0.57026133  0.38721083  0.89048323     0.74680
O439        O  0.49481503  0.23494533  0.07849637    -0.38770
O440        O  0.43829266  0.29846779  0.08848220    -0.38720
O441        O  0.61210627  0.37042389  0.86969639    -0.39420
O442        O  0.54737099  0.42638786  0.87004903    -0.39490
C443        C  0.76108772  0.23466932  0.01640013    -0.11770
C444        C  0.76739918  0.27721625  0.98175975     0.05240
C445        C  0.81422424  0.28100834  0.95176992    -0.07060
C446        C  0.85391338  0.24309100  0.95879072    -0.07800
C447        C  0.84714031  0.20024997  0.99309777    -0.02350
C448        C  0.79998043  0.19617983  0.02187261     0.04470
N449        N  0.79209364  0.15500878  0.05936726     0.66970
H450        H  0.72600588  0.23178794  0.04037957     0.15870
H451        H  0.88956137  0.24588708  0.93571172     0.15580
N452        N  0.82131911  0.32156370  0.91276182     0.74680
O453        O  0.79096867  0.16637752  0.10802045    -0.38770
O454        O  0.77371902  0.11149914  0.04386184    -0.38720
O455        O  0.86649127  0.33941303  0.90343572    -0.39420
O456        O  0.78379547  0.33498457  0.88309565    -0.39490
C457        C  0.55933959  0.72268099  0.04846918    -0.11770
C458        C  0.58392553  0.71542485  0.99945070     0.05240
C459        C  0.55344377  0.71259658  0.95253631    -0.07060
C460        C  0.49852031  0.71414543  0.95714054    -0.07800
C461        C  0.47392313  0.71772669  0.00662011    -0.02350
C462        C  0.50453548  0.72350500  0.05305285     0.04470
N463        N  0.48116896  0.72735745  0.10502471     0.66970
H464        H  0.58334488  0.72475368  0.08381253     0.15870
H465        H  0.47435479  0.70949584  0.92216888     0.15580
N466        N  0.57683991  0.70610496  0.90068189     0.74680
O467        O  0.50845473  0.71915258  0.14591597    -0.38770
O468        O  0.43430301  0.74217344  0.11084057    -0.38720
O469        O  0.62554020  0.71103208  0.89373188    -0.39420
O470        O  0.54826342  0.69832063  0.86059939    -0.39490
C471        C  0.70447101  0.49257983  0.04122939    -0.11770
C472        C  0.71556446  0.46739694  0.99310780     0.05240
C473        C  0.73342292  0.49720352  0.94945052    -0.07060
C474        C  0.73614597  0.55228174  0.95430566    -0.07800
C475        C  0.72053744  0.57768053  0.00104940    -0.02350
C476        C  0.70710115  0.54754784  0.04605876     0.04470
N477        N  0.69411590  0.57220506  0.09592361     0.66970
H478        H  0.69181867  0.46914316  0.07465096     0.15870
H479        H  0.74600298  0.57576955  0.91996541     0.15580
N480        N  0.74554005  0.47308397  0.89921611     0.74680
O481        O  0.66704571  0.54792468  0.12978740    -0.38770
O482        O  0.71346231  0.61625587  0.10840802    -0.38720
O483        O  0.71882661  0.43496074  0.88192565    -0.39420
O484        O  0.77941627  0.49356286  0.86930381    -0.39490
C485        C  0.85985962  0.80217249  0.02489782    -0.11770
C486        C  0.85031139  0.84890898  0.99689560     0.05240
C487        C  0.80164244  0.85565026  0.97099818    -0.07060
C488        C  0.76423180  0.81545861  0.97343225    -0.07800
C489        C  0.77331495  0.76877541  0.00200638    -0.02350
C490        C  0.82169150  0.76278008  0.02908301     0.04470
N491        N  0.83190601  0.71872827  0.06323700     0.66970
H492        H  0.89648933  0.79736375  0.04608172     0.15870
H493        H  0.72821201  0.82032092  0.95127820     0.15580
N494        N  0.79000381  0.90200498  0.94060100     0.74680
O495        O  0.87717628  0.69860234  0.06511590    -0.38770
O496        O  0.79796097  0.70444234  0.09652560    -0.38720
O497        O  0.82181196  0.91790956  0.90593021    -0.39420
O498        O  0.74514298  0.92293935  0.94341620    -0.39490
loop_ 
_geom_bond_atom_site_label_1 
_geom_bond_atom_site_label_2 
_geom_bond_distance 
_geom_bond_site_symmetry_2 
_ccdc_geom_bond_type 
C1            C2   1.412   1_554  A
C1            C6   1.412       .  A
C1          C489   1.494       .  S
C2            C3   1.400       .  A
C2            H7   1.082       .  S
C3            C4   1.397       .  A
C3          C475   1.473   1_556  S
C4            C5   1.395   1_556  A
C4            H8   1.085       .  S
C5            C6   1.400       .  A
C5          C458   1.473   1_554  S
C6            H9   1.083       .  S
C10          C11   1.407       .  A
C10          C15   1.413       .  A
C10         C444   1.486       .  S
C11          C12   1.397       .  A
C11          H16   1.084       .  S
C12          C13   1.397       .  A
C12         C472   1.472       .  S
C13          C14   1.400       .  A
C13          H17   1.085       .  S
C14          C15   1.405       .  A
C14         C430   1.484       .  S
C15          H18   1.083       .  S
C19          C20   1.414   1_554  A
C19          C24   1.413       .  A
C19         C416   1.495       .  S
C20          C21   1.405       .  A
C20          H25   1.083       .  S
C21          C22   1.399       .  A
C21         C433   1.484       .  S
C22          C23   1.396   1_556  A
C22          H26   1.085       .  S
C23          C24   1.402       .  A
C23         C402   1.478       .  S
C24          H27   1.083       .  S
C28          C29   1.413       .  A
C28          C33   1.415       .  A
C28         C388   1.502       .  S
C29          C30   1.403       .  A
C29          H34   1.082   1_554  S
C30          C31   1.396       .  A
C30         C461   1.475       .  S
C31          C32   1.396       .  A
C31          H35   1.085       .  S
C32          C33   1.401       .  A
C32         C405   1.476       .  S
C33          H36   1.082       .  S
C37          C38   1.405       .  A
C37          C42   1.412       .  A
C37         C377   1.485       .  S
C38          C39   1.395   1_545  A
C38          H43   1.083       .  S
C39          C40   1.396       .  A
C39         C363   1.476       .  S
C40          C41   1.409   1_565  A
C40          H44   1.080       .  S
C41          C42   1.414       .  A
C41         C346   1.511       .  S
C42          H45   1.081       .  S
C46          C47   1.416       .  A
C46          C51   1.412       .  A
C46         C332   1.501       .  S
C47          C48   1.405       .  A
C47          H52   1.082       .  S
C48          C49   1.401       .  A
C48         C318   1.488       .  S
C49          C50   1.396       .  A
C49          H53   1.085       .  S
C50          C51   1.400       .  A
C50         C360   1.476       .  S
C51          H54   1.082       .  S
C55          C56   1.413       .  A
C55          C60   1.409       .  A
C55         C307   1.489       .  S
C56          C57   1.404       .  A
C56          H61   1.083       .  S
C57          C58   1.398       .  A
C57         C321   1.479       .  S
C58          C59   1.397       .  A
C58          H62   1.085       .  S
C59          C60   1.399       .  A
C59         C293   1.473       .  S
C60          H63   1.083       .  S
C64          C65   1.419       .  A
C64          C69   1.408       .  A
C64         C279   1.499       .  S
C65          C66   1.416       .  A
C65          H70   1.078       .  S
C66          C67   1.408       .  A
C66         C349   1.513       .  S
C67          C68   1.394       .  A
C67          H71   1.081       .  S
C68          C69   1.392       .  A
C68         C290   1.480       .  S
C69          H72   1.083       .  S
C73          C74   1.405       .  A
C73          C78   1.404       .  A
C73         C262   1.470       .  S
C74          C75   1.402       .  A
C74          H79   1.084       .  S
C75          C76   1.399       .  A
C75         C251   1.475       .  S
C76          C77   1.398       .  A
C76          H80   1.085       .  S
C77          C78   1.398       .  A
C77         C234   1.472       .  S
C78          H81   1.084       .  S
C82          C83   1.404       .  A
C82          C87   1.404       .  A
C82         C220   1.470       .  S
C83          C84   1.399       .  A
C83          H88   1.084       .  S
C84          C85   1.400       .  A
C84         C248   1.475       .  S
C85          C86   1.401       .  A
C85          H89   1.085       .  S
C86          C87   1.401       .  A
C86         C206   1.478       .  S
C87          H90   1.084       .  S
C91          C92   1.403       .  A
C91          C96   1.410       .  A
C91         C195   1.478       .  S
C92          C93   1.396       .  A
C92          H97   1.084       .  S
C93          C94   1.397       .  A
C93         C237   1.471       .  S
C94          C95   1.403       .  A
C94          H98   1.085       .  S
C95          C96   1.408       .  A
C95         C178   1.489       .  S
C96          H99   1.082       .  S
C100        C101   1.405       .  A
C100        C105   1.408       .  A
C100        C167   1.478       .  S
C101        C102   1.399       .  A
C101        H106   1.084       .  S
C102        C103   1.399       .  A
C102        C209   1.477       .  S
C103        C104   1.403       .  A
C103        H107   1.084       .  S
C104        C105   1.406       .  A
C104        C181   1.489   1_455  S
C105        H108   1.084       .  S
O109        C120   1.291       .  A
O109       Eu145   2.456   1_655  S
O110        C121   1.293       .  A
O110       Eu144   2.470   1_655  S
O111        C122   1.295       .  A
O111       Eu117   2.471   1_554  S
O112        C123   1.293       .  A
O112       Eu117   2.469       .  S
O113        C123   1.290       .  A
O113       Eu147   2.447   1_655  S
O114        C122   1.287       .  A
O114       Eu146   2.444   1_655  S
O115        C121   1.289       .  A
O115       Eu117   2.449       .  S
O116        C120   1.290       .  A
O116       Eu117   2.451   1_565  S
Eu117       O127   2.356   1_545  S
Eu117       O119   2.346   1_546  S
Eu117       O118   2.347       .  S
Eu117       O125   2.356   1_556  S
O118       Eu147   2.347   1_655  S
O118       Eu144   2.343   1_655  S
O119       Eu145   2.344   1_654  S
O119       Eu146   2.348   1_665  S
C120        C486   1.480       .  S
C121        C447   1.482       .  S
C122        C276   1.484       .  S
C123        C374   1.481       .  S
H124        O125   0.966       .  S
O125       Eu146   2.359   1_655  S
O125       Eu144   2.359   1_654  S
H126        O127   0.966       .  S
O127       Eu145   2.353   1_655  S
O127       Eu147   2.353   1_665  S
O128        C151   1.293       .  A
O128       Eu144   2.467   1_554  S
O129        C152   1.289       .  A
O129       Eu145   2.457       .  S
O130        C153   1.293       .  A
O130       Eu146   2.469       .  S
O131        C154   1.290       .  A
O131       Eu147   2.455       .  S
O132        C155   1.292       .  A
O132       Eu147   2.469   1_565  S
O133        C156   1.291       .  A
O133       Eu146   2.464   1_565  S
O134        C157   1.293       .  A
O134       Eu148   2.462   1_554  S
O135        C158   1.294       .  A
O135       Eu148   2.469       .  S
O136        C157   1.288       .  A
O136       Eu146   2.446       .  S
O137        C158   1.289       .  A
O137       Eu147   2.449       .  S
O138        C153   1.287       .  A
O138       Eu144   2.442   1_554  S
O139        C156   1.289       .  A
O139       Eu145   2.448   1_554  S
O140        C155   1.287       .  A
O140       Eu145   2.437       .  S
O141        C154   1.289       .  A
O141       Eu144   2.449       .  S
O142        C151   1.291       .  A
O142       Eu148   2.457   1_554  S
O143        C152   1.292       .  A
O143       Eu148   2.456   1_565  S
Eu144       O162   2.355       .  S
Eu144       O150   2.351   1_556  S
Eu145       O149   2.351       .  S
Eu145       O160   2.352   1_556  S
Eu146       O160   2.353   1_545  S
Eu146       O150   2.349       .  S
Eu147       O149   2.348   1_545  S
Eu147       O162   2.354       .  S
Eu148       O149   2.350   1_545  S
Eu148       O160   2.356   1_546  S
Eu148       O162   2.355       .  S
Eu148       O150   2.352   1_556  S
C151        C419   1.487       .  S
C152        C391   1.489   1_556  S
C153        C192   1.473       .  S
C154        C265   1.464       .  S
C155        C223   1.465       .  S
C156        C164   1.468       .  S
C157        C304   1.482       .  S
C158        C335   1.489       .  S
H159        O160   0.966       .  S
H161        O162   0.966       .  S
C163        C164   1.401       .  A
C163        C168   1.403       .  A
C163        H170   1.084       .  S
C164        C165   1.419   1_455  A
C165        C166   1.408       .  A
C165        N172   1.449       .  S
C166        C167   1.403   1_655  A
C166        H171   1.084       .  S
C167        C168   1.414       .  A
C168        N169   1.442       .  S
N169        O173   1.263       .  A
N169        O174   1.263       .  A
N172        O175   1.262       .  A
N172        O176   1.263       .  A
C177        C178   1.404   1_655  A
C177        C182   1.402       .  A
C177        H184   1.084       .  S
C178        C179   1.411       .  A
C179        C180   1.405       .  A
C179        N186   1.429       .  S
C180        C181   1.406   1_455  A
C180        H185   1.084       .  S
C181        C182   1.417       .  A
C182        N183   1.440       .  S
N183        O187   1.263       .  A
N183        O188   1.263       .  A
N186        O189   1.262       .  A
N186        O190   1.262       .  A
C191        C192   1.401   1_655  A
C191        C196   1.403       .  A
C191        H198   1.084       .  S
C192        C193   1.413       .  A
C193        C194   1.401       .  A
C193        N200   1.434       .  S
C194        C195   1.402       .  A
C194        H199   1.084       .  S
C195        C196   1.417   1_455  A
C196        N197   1.438       .  S
N197        O201   1.263       .  A
N197        O202   1.261       .  A
N200        O203   1.262       .  A
N200        O204   1.262       .  A
C205        C206   1.402   1_655  A
C205        C210   1.406       .  A
C205        H212   1.084       .  S
C206        C207   1.414       .  A
C207        C208   1.402       .  A
C207        N214   1.441       .  S
C208        C209   1.402       .  A
C208        H213   1.084       .  S
C209        C210   1.417   1_455  A
C210        N211   1.441       .  S
N211        O215   1.263       .  A
N211        O216   1.262       .  A
N214        O217   1.263       .  A
N214        O218   1.263       .  A
C219        C220   1.402       .  A
C219        C224   1.403       .  A
C219        H226   1.084       .  S
C220        C221   1.415   1_455  A
C221        C222   1.404       .  A
C221        N228   1.445       .  S
C222        C223   1.401   1_655  A
C222        H227   1.083       .  S
C223        C224   1.416       .  A
C224        N225   1.446       .  S
N225        O229   1.263       .  A
N225        O230   1.262       .  A
N228        O231   1.262       .  A
N228        O232   1.263       .  A
C233        C234   1.400   1_655  A
C233        C238   1.402       .  A
C233        H240   1.084       .  S
C234        C235   1.414       .  A
C235        C236   1.404       .  A
C235        N242   1.443       .  S
C236        C237   1.401       .  A
C236        H241   1.084       .  S
C237        C238   1.415   1_455  A
C238        N239   1.440       .  S
N239        O243   1.263       .  A
N239        O244   1.262       .  A
N242        O245   1.263       .  A
N242        O246   1.263       .  A
C247        C248   1.403   1_655  A
C247        C252   1.407       .  A
C247        H254   1.084       .  S
C248        C249   1.412       .  A
C249        C250   1.399       .  A
C249        N256   1.441       .  S
C250        C251   1.402       .  A
C250        H255   1.084       .  S
C251        C252   1.417   1_455  A
C252        N253   1.441       .  S
N253        O257   1.263       .  A
N253        O258   1.262       .  A
N256        O259   1.263       .  A
N256        O260   1.263       .  A
C261        C262   1.402   1_655  A
C261        C266   1.406       .  A
C261        H268   1.084       .  S
C262        C263   1.414       .  A
C263        C264   1.402       .  A
C263        N270   1.443       .  S
C264        C265   1.400       .  A
C264        H269   1.084       .  S
C265        C266   1.416   1_455  A
C266        N267   1.446       .  S
N267        O271   1.263       .  A
N267        O272   1.262       .  A
N270        O273   1.262       .  A
N270        O274   1.263       .  A
C275        C276   1.396       .  A
C275        C280   1.395       .  A
C275        H282   1.078       .  S
C276        C277   1.417   1_545  A
C277        C278   1.408       .  A
C277        N284   1.434       .  S
C278        C279   1.409   1_565  A
C278        H283   1.082       .  S
C279        C280   1.422       .  A
C280        N281   1.436       .  S
N281        O285   1.262       .  A
N281        O286   1.263       .  A
N284        O287   1.262       .  A
N284        O288   1.262       .  A
C289        C290   1.403       .  A
C289        C294   1.402       .  A
C289        H296   1.084   1_545  S
C290        C291   1.415       .  A
C291        C292   1.402       .  A
C291        N298   1.442       .  S
C292        C293   1.401       .  A
C292        H297   1.084       .  S
C293        C294   1.413       .  A
C294        N295   1.437   1_545  S
N295        O299   1.263       .  A
N295        O300   1.262       .  A
N298        O301   1.263       .  A
N298        O302   1.263       .  A
C303        C304   1.403   1_565  A
C303        C308   1.403       .  A
C303        H310   1.084       .  S
C304        C305   1.413       .  A
C305        C306   1.400       .  A
C305        N312   1.431       .  S
C306        C307   1.405       .  A
C306        H311   1.084       .  S
C307        C308   1.419   1_545  A
C308        N309   1.437       .  S
N309        O313   1.262       .  A
N309        O314   1.263       .  A
N312        O315   1.262       .  A
N312        O316   1.262       .  A
C317        C318   1.405       .  A
C317        C322   1.409       .  A
C317        H324   1.083       .  S
C318        C319   1.416   1_545  A
C319        C320   1.401       .  A
C319        N326   1.441       .  S
C320        C321   1.401   1_565  A
C320        H325   1.084       .  S
C321        C322   1.417       .  A
C322        N323   1.441       .  S
N323        O327   1.263       .  A
N323        O328   1.262       .  A
N326        O329   1.263       .  A
N326        O330   1.263       .  A
C331        C332   1.407       .  A
C331        C336   1.402       .  A
C331        H338   1.082   1_545  S
C332        C333   1.420       .  A
C333        C334   1.403       .  A
C333        N340   1.435       .  S
C334        C335   1.404       .  A
C334        H339   1.084       .  S
C335        C336   1.418       .  A
C336        N337   1.435   1_545  S
N337        O341   1.263       .  A
N337        O342   1.260       .  A
N340        O343   1.262       .  A
N340        O344   1.263       .  A
C345        C346   1.414       .  A
C345        C350   1.416       .  A
C345        H352   1.080       .  S
C346        C347   1.419       .  A
C347        C348   1.390       .  A
C347        N354   1.438       .  S
C348        C349   1.408       .  A
C348        H353   1.081       .  S
C349        C350   1.422       .  A
C350        N351   1.435       .  S
N351        O355   1.263       .  A
N351        O356   1.263       .  A
N354        O357   1.263       .  A
N354        O358   1.263       .  A
C359        C360   1.404   1_565  A
C359        C364   1.409       .  A
C359        H366   1.084       .  S
C360        C361   1.416       .  A
C361        C362   1.401       .  A
C361        N368   1.444       .  S
C362        C363   1.402   1_545  A
C362        H367   1.084       .  S
C363        C364   1.413       .  A
C364        N365   1.442       .  S
N365        O369   1.263       .  A
N365        O370   1.263       .  A
N368        O371   1.261       .  A
N368        O372   1.263       .  A
C373        C374   1.404       .  A
C373        C378   1.407       .  A
C373        H380   1.084       .  S
C374        C375   1.415       .  A
C375        C376   1.400       .  A
C375        N382   1.437   1_545  S
C376        C377   1.402       .  A
C376        H381   1.084   1_545  S
C377        C378   1.418       .  A
C378        N379   1.441       .  S
N379        O383   1.263       .  A
N379        O384   1.263       .  A
N382        O385   1.261       .  A
N382        O386   1.263       .  A
C387        C388   1.409   1_556  A
C387        C392   1.402       .  A
C387        H394   1.082       .  S
C388        C389   1.420       .  A
C389        C390   1.401       .  A
C389        N396   1.433       .  S
C390        C391   1.404       .  A
C390        H395   1.084       .  S
C391        C392   1.416   1_554  A
C392        N393   1.433       .  S
N393        O397   1.262       .  A
N393        O398   1.262       .  A
N396        O399   1.263       .  A
N396        O400   1.261       .  A
C401        C402   1.404       .  A
C401        C406   1.412       .  A
C401        H408   1.083       .  S
C402        C403   1.415   1_554  A
C403        C404   1.401       .  A
C403        N410   1.443       .  S
C404        C405   1.400   1_556  A
C404        H409   1.084       .  S
C405        C406   1.419       .  A
C406        N407   1.447       .  S
N407        O411   1.263       .  A
N407        O412   1.262       .  A
N410        O413   1.261       .  A
N410        O414   1.263       .  A
C415        C416   1.406       .  A
C415        C420   1.405       .  A
C415        H422   1.084       .  S
C416        C417   1.418   1_554  A
C417        C418   1.403       .  A
C417        N424   1.435       .  S
C418        C419   1.403   1_556  A
C418        H423   1.084       .  S
C419        C420   1.417       .  A
C420        N421   1.437       .  S
N421        O425   1.263       .  A
N421        O426   1.262       .  A
N424        O427   1.262       .  A
N424        O428   1.263       .  A
C429        C430   1.404   1_554  A
C429        C434   1.410       .  A
C429        H436   1.084       .  S
C430        C431   1.414       .  A
C431        C432   1.401       .  A
C431        N438   1.441       .  S
C432        C433   1.403       .  A
C432        H437   1.084       .  S
C433        C434   1.418   1_556  A
C434        N435   1.440       .  S
N435        O439   1.263       .  A
N435        O440   1.262       .  A
N438        O441   1.263       .  A
N438        O442   1.263       .  A
C443        C444   1.401   1_554  A
C443        C448   1.397       .  A
C443        H450   1.084       .  S
C444        C445   1.419       .  A
C445        C446   1.406       .  A
C445        N452   1.438       .  S
C446        C447   1.403       .  A
C446        H451   1.083       .  S
C447        C448   1.411   1_556  A
C448        N449   1.427       .  S
N449        O453   1.262       .  A
N449        O454   1.262       .  A
N452        O455   1.263       .  A
N452        O456   1.262       .  A
C457        C458   1.400   1_554  A
C457        C462   1.404       .  A
C457        H464   1.084       .  S
C458        C459   1.419       .  A
C459        C460   1.407       .  A
C459        N466   1.448       .  S
C460        C461   1.401   1_556  A
C460        H465   1.084       .  S
C461        C462   1.417       .  A
C462        N463   1.445       .  S
N463        O467   1.263       .  A
N463        O468   1.261       .  A
N466        O469   1.262       .  A
N466        O470   1.263       .  A
C471        C472   1.400   1_554  A
C471        C476   1.401       .  A
C471        H478   1.084       .  S
C472        C473   1.415       .  A
C473        C474   1.404       .  A
C473        N480   1.440       .  S
C474        C475   1.401   1_556  A
C474        H479   1.084       .  S
C475        C476   1.415       .  A
C476        N477   1.443       .  S
N477        O481   1.263       .  A
N477        O482   1.263       .  A
N480        O483   1.262       .  A
N480        O484   1.263       .  A
C485        C486   1.403   1_554  A
C485        C490   1.402       .  A
C485        H492   1.084       .  S
C486        C487   1.414       .  A
C487        C488   1.401       .  A
C487        N494   1.436       .  S
C488        C489   1.407   1_556  A
C488        H493   1.083       .  S
C489        C490   1.419       .  A
C490        N491   1.437       .  S
N491        O495   1.263       .  A
N491        O496   1.262       .  A
N494        O497   1.262       .  A
N494        O498   1.263       .  A
