geometry optimzed in LAMMPS
_audit_creation_date              2020-12-01 
_audit_creation_method            'lammps2cif' 
_symmetry_space_group_name_H-M    'P1' 
_symmetry_Int_Tables_number       1 
_symmetry_cell_setting            triclinic 
loop_ 
_symmetry_equiv_pos_as_xyz 
  x,y,z 
_cell_length_a                    37.73963557 
_cell_length_b                    39.14690657845037 
_cell_length_c                    39.2110629413597 
_cell_angle_alpha                 93.2471934927492 
_cell_angle_beta                  90.33862261166435 
_cell_angle_gamma                 89.6954605771665 
loop_ 
_atom_site_label 
_atom_site_type_symbol 
_atom_site_fract_x 
_atom_site_fract_y 
_atom_site_fract_z 
_atom_site_charge 
C1          C  0.08137854  0.10543821  0.10915065     0.86700
C2          C  0.10724062  0.12797613  0.08968632    -0.53500
C3          C  0.12922713  0.14810425  0.10922108     0.09700
C4          C  0.12365966  0.14295955  0.14774115     0.20600
C5          C  0.10628885  0.08403960  0.13089378    -0.54200
C6          C  0.12976660  0.10247788  0.15004526     0.09800
C7          C  0.06112112  0.13058513  0.13387810    -0.53800
C8          C  0.08208935  0.15177423  0.15389136     0.10300
H9          H  0.10835440  0.12795357  0.06200580     0.14900
H10         H  0.14185624  0.15902890  0.16408900     0.00600
H11         H  0.10880675  0.05656598  0.12878496     0.15200
H12         H  0.03264001  0.13414125  0.13236425     0.14900
C13         C  0.06762930  0.25374734  0.19992301     0.30300
C14         C  0.06771448  0.18720026  0.17079726     0.30300
C15         C  0.08370101  0.22588737  0.22076013    -0.05900
C16         C  0.02853897  0.23769524  0.19279046    -0.06700
C17         C  0.08294342  0.24826524  0.16427173    -0.06600
C18         C  0.08283468  0.19241972  0.20656610    -0.05900
C19         C  0.02866270  0.20353332  0.17699592    -0.06700
C20         C  0.08406802  0.21470925  0.15021841    -0.06600
C21         C  0.07622038  0.17226072  0.23354102    -0.32000
N22         N  0.07685549  0.19099662  0.26336767     0.14500
C23         C  0.07994771  0.22379317  0.25555064    -0.32000
H24         H  0.07496564  0.24517785  0.27350651     0.16500
C25         C  0.49123193  0.19210402  0.17391771    -0.31000
N26         N  0.46896584  0.21791270  0.18660847     0.13200
C27         C  0.49082653  0.24407593  0.19904960    -0.31000
C28         C  0.08042008  0.21655854  0.11538124    -0.31300
N29         N  0.07722144  0.24924630  0.10729378     0.13700
H30         H  0.07535442  0.19514030  0.09751244     0.16400
C31         C  0.07629585  0.26823560  0.13698271    -0.31300
H32         H  0.06630085  0.29416518  0.13870436     0.16400
H33         H  0.48118686  0.26815810  0.21039810     0.16400
H34         H  0.06617628  0.14647592  0.23145288     0.16400
H35         H  0.48197440  0.16792370  0.16258081     0.16400
C36         C  0.08467126  0.33526446  0.26245568     0.86700
C37         C  0.11043630  0.31175368  0.28129346    -0.53500
C38         C  0.13114130  0.29076928  0.26145197     0.09700
C39         C  0.12477893  0.29633241  0.22290221     0.20600
C40         C  0.10933578  0.35575753  0.24022041    -0.54200
C41         C  0.13166019  0.33669895  0.22049239     0.09800
C42         C  0.06298485  0.31067629  0.23792193    -0.53800
C43         C  0.08286985  0.28885348  0.21722542     0.10300
H44         H  0.11235550  0.31163701  0.30894973     0.14900
H45         H  0.14220976  0.27977053  0.20625051     0.00600
H46         H  0.11287633  0.38303242  0.24234289     0.15200
H47         H  0.03448241  0.30803094  0.23994430     0.14900
C48         C  0.16158066  0.08494515  0.16813269     0.30300
C49         C  0.22006059  0.07213987  0.20729269     0.30300
C50         C  0.16336195  0.10272856  0.20338714    -0.05900
C51         C  0.16718488  0.04521631  0.17728523    -0.06700
C52         C  0.19819022  0.09351267  0.15287141    -0.06600
C53         C  0.19229639  0.09546075  0.22322713    -0.05900
C54         C  0.19776684  0.03981480  0.19766556    -0.06700
C55         C  0.22705288  0.08710031  0.17311990    -0.06600
C56         C  0.18225505  0.10028418  0.25650063    -0.32000
N57         N  0.14992436  0.11455429  0.25736864     0.14500
C58         C  0.13721507  0.11387073  0.22523702    -0.32000
H59         H  0.11002526  0.11643308  0.21822795     0.16500
C60         C  0.19930591  0.00566731  0.20518934    -0.31000
N61         N  0.17400833  0.48832063  0.18704293     0.13200
C62         C  0.15225547  0.01175601  0.17267549    -0.31000
C63         C  0.25653270  0.10026738  0.15853135    -0.31300
N64         N  0.24707915  0.11687483  0.13056522     0.13700
H65         H  0.28298441  0.09620106  0.16729060     0.16400
C66         C  0.21202894  0.10907341  0.12490509    -0.31300
H67         H  0.19761197  0.11281272  0.10164264     0.16400
H68         H  0.13029463  0.50475355  0.15495714     0.16400
H69         H  0.19589719  0.09031464  0.27798488     0.16400
H70         H  0.22217336  0.49470629  0.21578588     0.16400
C71         C  0.31847545  0.14038640  0.06757279     0.86700
C72         C  0.29464600  0.11815894  0.08888472    -0.53500
C73         C  0.27174582  0.13548288  0.10970453     0.09700
C74         C  0.27705431  0.17537331  0.10919170     0.20600
C75         C  0.29363013  0.16478362  0.04952088    -0.54200
C76         C  0.27047809  0.18251810  0.06974290     0.09800
C77         C  0.33942912  0.16322924  0.09505254    -0.53800
C78         C  0.31857978  0.18164196  0.11836625     0.10300
H79         H  0.29526772  0.09035939  0.08706639     0.14900
H80         H  0.25918976  0.19006265  0.12699623     0.00600
H81         H  0.29267357  0.16554825  0.02196141     0.15200
H82         H  0.36800388  0.16268194  0.09771019     0.14900
C83         C  0.09724180  0.13643211  0.33690506     0.86700
C84         C  0.11672599  0.11353561  0.30968959    -0.53500
C85         C  0.13379064  0.13086445  0.28660707     0.09700
C86         C  0.13203701  0.16937215  0.29280294     0.20600
C87         C  0.12686569  0.15974844  0.35358678    -0.54200
C88         C  0.14544399  0.17684227  0.32996147     0.09800
C89         C  0.07395481  0.16093833  0.31652852    -0.53800
C90         C  0.09260374  0.17764064  0.29306774     0.10300
H91         H  0.11589304  0.08572216  0.30783848     0.14900
H92         H  0.14665836  0.18256216  0.27287153     0.00600
H93         H  0.13316436  0.16168793  0.38055863     0.15200
H94         H  0.04534297  0.16284398  0.31822625     0.14900
C95         C  0.33287561  0.20081984  0.15370932     0.30300
C96         C  0.33305039  0.23376109  0.21953193     0.30300
C97         C  0.31688218  0.18185798  0.18267785    -0.05900
C98         C  0.37184690  0.20853871  0.16995292    -0.06700
C99         C  0.31707254  0.23673272  0.15765043    -0.06600
C100        C  0.31755147  0.19783016  0.21563666    -0.05900
C101        C  0.37191175  0.22606675  0.20341917    -0.06700
C102        C  0.31666649  0.25270109  0.19059959    -0.06600
C103        C  0.32296141  0.17164526  0.23728823    -0.32000
N104        N  0.32213231  0.14094536  0.21989112     0.14500
C105        C  0.32046438  0.14732290  0.18659247    -0.32000
H106        H  0.32706704  0.12870475  0.16621205     0.16500
C107        C  0.40817283  0.23133771  0.21204418    -0.31000
N108        N  0.43020201  0.21764062  0.18667110     0.13200
C109        C  0.40812027  0.20369160  0.16131694    -0.31000
C110        C  0.32035580  0.28716873  0.18680186    -0.31300
N111        N  0.32179796  0.29349922  0.15357165     0.13700
H112        H  0.32745476  0.30561101  0.20718980     0.16400
C113        C  0.32224316  0.26287150  0.13606253    -0.31300
H114        H  0.33270129  0.25954897  0.11058654     0.16400
H115        H  0.41755937  0.19126768  0.13773411     0.16400
H116        H  0.33348035  0.17488592  0.26287025     0.16400
H117        H  0.41765299  0.24397274  0.23556762     0.16400
C118        C  0.30327290  0.37104043  0.10291114     0.86700
C119        C  0.28371049  0.34627040  0.07735108    -0.53500
C120        C  0.26558442  0.32187721  0.09231327     0.09700
C121        C  0.26714970  0.32470264  0.13123786     0.20600
C122        C  0.27386299  0.38646606  0.12668974    -0.54200
C123        C  0.25475591  0.36185043  0.14161254     0.09800
C124        C  0.32568404  0.34810011  0.12585008    -0.53800
C125        C  0.30650820  0.32333469  0.13974935     0.10300
H126        H  0.28582566  0.34668473  0.04974138     0.14900
H127        H  0.25200698  0.30408494  0.14287180     0.00600
H128        H  0.26847343  0.41344923  0.13112581     0.15200
H129        H  0.35431192  0.34943498  0.12843654     0.14900
C130        C  0.30021470  0.06239022  0.26835488     0.86700
C131        C  0.28231486  0.08776187  0.29485733    -0.53500
C132        C  0.26487805  0.11354834  0.28032069     0.09700
C133        C  0.26642075  0.11166997  0.24132375     0.20600
C134        C  0.27070967  0.04973132  0.24393598    -0.54200
C135        C  0.25266381  0.07541983  0.22986103     0.09800
C136        C  0.32418409  0.08604773  0.24788590    -0.53800
C137        C  0.30592910  0.11165931  0.23362569     0.10300
H138        H  0.28500702  0.08685170  0.32236756     0.14900
H139        H  0.25207547  0.13318861  0.22996799     0.00600
H140        H  0.26481760  0.02295279  0.23901574     0.15200
H141        H  0.35289831  0.08508498  0.24754488     0.14900
C142        C  0.16350424  0.35379599  0.20253087     0.30300
C143        C  0.22223865  0.36624699  0.16418940     0.30300
C144        C  0.16477833  0.33706885  0.16680430    -0.05900
C145        C  0.16991808  0.39383282  0.19460968    -0.06700
C146        C  0.19986216  0.34369239  0.21779203    -0.06600
C147        C  0.19349532  0.34444222  0.14726947    -0.05900
C148        C  0.20078568  0.39913660  0.17493974    -0.06700
C149        C  0.22889286  0.34974884  0.19810090    -0.06600
C150        C  0.18325919  0.33956053  0.11379411    -0.32000
N151        N  0.15103494  0.32502463  0.11264009     0.14500
C152        C  0.13876134  0.32540712  0.14484995    -0.32000
H153        H  0.11192094  0.32173397  0.15195562     0.16500
C154        C  0.20286017  0.43368922  0.16856778    -0.31000
N155        N  0.17486643  0.45130900  0.18279576     0.13200
C156        C  0.15493035  0.42751052  0.19925751    -0.31000
C157        C  0.25813571  0.33606647  0.21361981    -0.31300
N158        N  0.24823560  0.31958404  0.24152448     0.13700
H159        H  0.28477557  0.34011097  0.20576039     0.16400
C160        C  0.21315815  0.32795587  0.24615885    -0.31300
H161        H  0.19833829  0.32458747  0.26908087     0.16400
H162        H  0.13164765  0.43408975  0.21421724     0.16400
H163        H  0.19712282  0.34885033  0.09229417     0.16400
H164        H  0.22391914  0.44561259  0.15507853     0.16400
C165        C  0.09807444  0.30155952  0.03250246     0.86700
C166        C  0.11769120  0.32505434  0.05941213    -0.53500
C167        C  0.13481775  0.30821017  0.08334224     0.09700
C168        C  0.13268999  0.26957877  0.07810273     0.20600
C169        C  0.12731007  0.27739675  0.01678605    -0.54200
C170        C  0.14589288  0.26094788  0.04110517     0.09800
C171        C  0.07470788  0.27802513  0.05346227    -0.53800
C172        C  0.09320370  0.26198935  0.07769350     0.10300
H173        H  0.11669027  0.35285373  0.06043321     0.14900
H174        H  0.14720045  0.25652001  0.09845293     0.00600
H175        H  0.13307522  0.27396851  0.98987029     0.15200
H176        H  0.04608001  0.27633362  0.05152123     0.14900
C177        C  0.32006354  0.29437613  0.30538913     0.86700
C178        C  0.29453744  0.31717165  0.28543948    -0.53500
C179        C  0.27233103  0.30041118  0.26325942     0.09700
C180        C  0.27765860  0.26036825  0.26353123     0.20600
C181        C  0.29468373  0.27039795  0.32340397    -0.54200
C182        C  0.27125339  0.25306552  0.30292329     0.09800
C183        C  0.34011335  0.27167708  0.27759320    -0.53800
C184        C  0.31900161  0.25344508  0.25453333     0.10300
H185        H  0.29344780  0.34486472  0.28891341     0.14900
H186        H  0.25973391  0.24594431  0.24552728     0.00600
H187        H  0.29208596  0.27008294  0.35074360     0.15200
H188        H  0.36873622  0.27190270  0.27528801     0.14900
C189        C  0.17911638  0.23882527  0.03725730     0.30300
C190        C  0.23841968  0.20220576  0.05357658     0.30300
C191        C  0.17280370  0.20431734  0.05252916    -0.05900
C192        C  0.20135170  0.22820220  0.00586060    -0.06700
C193        C  0.20724416  0.25702298  0.05983552    -0.06600
C194        C  0.20219965  0.18818154  0.06506314    -0.05900
C195        C  0.23229451  0.20875730  0.01257694    -0.06700
C196        C  0.23671627  0.23820024  0.06863596    -0.06600
C197        C  0.18891349  0.17377449  0.09425512    -0.32000
N198        N  0.15285211  0.17198731  0.09314672     0.14500
C199        C  0.14320274  0.19086957  0.06679171    -0.32000
H200        H  0.11640595  0.19543863  0.05850405     0.16500
C201        C  0.24586896  0.20675981  0.47883722    -0.31000
N202        N  0.22593596  0.22321446  0.45463534     0.13200
C203        C  0.19775308  0.23746625  0.47162962    -0.31000
C204        C  0.26331390  0.26086171  0.07584038    -0.31300
N205        N  0.25087434  0.29288648  0.07372506     0.13700
H206        H  0.29070034  0.25420039  0.07708568     0.16400
C207        C  0.21763092  0.29066416  0.06121803    -0.31300
H208        H  0.20292247  0.31148908  0.05095347     0.16400
H209        H  0.17626512  0.25055995  0.45942025     0.16400
H210        H  0.20416870  0.16899096  0.11655111     0.16400
H211        H  0.26920415  0.19168372  0.47245006     0.16400
C212        C  0.17897951  0.19840107  0.33433513     0.30300
C213        C  0.23881398  0.23403332  0.31879435     0.30300
C214        C  0.17317653  0.23298495  0.31862065    -0.05900
C215        C  0.20105743  0.20891803  0.36603244    -0.06700
C216        C  0.20722319  0.17956974  0.31246349    -0.06600
C217        C  0.20283707  0.24858790  0.30664796    -0.05800
C218        C  0.23216875  0.22793962  0.35976673    -0.06700
C219        C  0.23682704  0.19788909  0.30393211    -0.06600
C220        C  0.19010861  0.26354604  0.27735121    -0.32000
N221        N  0.15406437  0.26576520  0.27742702     0.14500
C222        C  0.14393095  0.24706067  0.30364685    -0.32000
H223        H  0.11704770  0.24331264  0.31164685     0.16500
C224        C  0.24661927  0.23352300  0.39373106    -0.31000
N225        N  0.22610817  0.21795820  0.41781962     0.13200
C226        C  0.19835841  0.20343227  0.40040849    -0.31000
C227        C  0.26319162  0.17473678  0.29673222    -0.31300
N228        N  0.25074306  0.14283435  0.29919284     0.13700
H229        H  0.29050681  0.18104840  0.29488200     0.16400
C230        C  0.21750097  0.14574230  0.31144803    -0.31300
H231        H  0.20250271  0.12514486  0.32139136     0.16400
H232        H  0.17676243  0.19071128  0.41237206     0.16400
H233        H  0.20572679  0.26832686  0.25554933     0.16400
H234        H  0.26993397  0.24844799  0.40033511     0.16400
O235        O  0.53863007  0.05371856  0.45873220    -0.75000
O236        O  0.07127180  0.51754423  0.47661849    -0.53900
C237        C  0.05957997  0.04050082  0.48312565     0.78700
O238        O  0.41271963  0.45101906  0.52210508    -0.59600
O239        O  0.37218552  0.44991815  0.47846206    -0.52700
C240        C  0.38163717  0.44633376  0.50955224     0.70700
O241        O  0.53449933  0.45494037  0.51486994    -0.74200
O242        O  0.08086243  0.44886425  0.48005879    -0.54800
C243        C  0.06349564  0.43698015  0.50434390     0.76700
O244        O  0.41846268  0.06230397  0.44979148    -0.59300
O245        O  0.37823027  0.02207531  0.45941002    -0.52500
C246        C  0.38994070  0.05293385  0.46364366     0.73300
Zr247      Zr  0.47663351  0.03979062  0.46099829     2.54700
O248        O  0.46906895  0.05461688  0.02255805    -0.79900
O249        O  0.48358623  0.09999299  0.44900548    -0.93300
Zr250      Zr  0.47170557  0.44764162  0.49901668     2.64700
O251        O  0.47852820  0.46569374  0.06148470    -0.98300
O252        O  0.46784686  0.38797793  0.51339807    -0.80300
O253        O  0.50503956  0.49329960  0.47966871    -0.83700
O254        O  0.43788693  0.49438332  0.47945328    -2.18400
O255        O  0.42127455  0.99024033  0.34135808    -0.67100
O256        O  0.37874108  0.98923475  0.38237331    -0.51700
C257        C  0.38887235  0.99070669  0.35133241     0.71700
O258        O  0.53372942  0.38715247  0.41253566    -0.60000
O259        O  0.07327397  0.43024872  0.39841126    -0.52000
C260        C  0.05938833  0.40093202  0.39113343     0.73500
O261        O  0.41312463  0.38353564  0.41912634    -0.71400
O262        O  0.37396851  0.42306771  0.40374618    -0.50100
C263        C  0.38562292  0.39219840  0.40251761     0.74900
O264        O  0.54313968  0.99001772  0.35602432    -0.66700
O265        O  0.08555199  0.49520749  0.39743439    -0.53900
C266        C  0.06973118  0.00387587  0.37182890     0.73200
Zr267      Zr  0.47916525  0.99566376  0.36787638     2.77500
O268        O  0.49094036  0.98615394  0.30706780    -0.97500
O269        O  0.47148582  0.05533793  0.35454234    -0.78300
Zr270      Zr  0.47228110  0.40292132  0.40630358     2.70100
O271        O  0.46762340  0.38330396  0.34634631    -0.79500
O272        O  0.47559301  0.34108341  0.41007160    -0.98600
Zr273      Zr  0.54256082  0.47081179  0.43445591     2.21500
Zr274      Zr  0.40410556  0.47176621  0.43148248     2.11100
O275        O  0.43998810  0.44892641  0.38507134    -2.47300
O276        O  0.50664493  0.44898246  0.38725511    -0.79300
O277        O  0.44309893  0.01861082  0.41310348    -0.71500
O278        O  0.50643223  0.42419946  0.45377098    -2.32500
O279        O  0.51168377  0.01750832  0.41534233    -2.28700
O280        O  0.43708984  0.42498152  0.45247415    -0.73300
H281        H  0.42572351  0.50476821  0.99993932     0.78700
H282        H  0.51827227  0.40571293  0.46405254     0.79800
H283        H  0.42606202  0.43859501  0.36658199     0.82000
H284        H  0.52345823  0.03668348  0.40639474     0.79600
H285        H  0.46603333  0.37471266  0.49121278     0.42700
H286        H  0.46330977  0.33646792  0.43155862     0.41600
H287        H  0.48091585  0.40040027  0.33392882     0.41300
H288        H  0.47679782  0.96576171  0.29980849     0.39200
H289        H  0.44847637  0.06245707  0.36472276     0.42400
H290        H  0.46220968  0.10634653  0.43603081     0.37200
H291        H  0.47479407  0.53931541  0.03434654     0.43300
H292        H  0.46256286  0.48575886  0.06462898     0.39700
H293        H  0.47902621  0.00540105  0.29626005     0.44600
H294        H  0.49702330  0.09863852  0.93256265     0.43300
H295        H  0.46647071  0.44729493  0.07319803     0.43500
H296        H  0.45970791  0.33164889  0.39172708     0.43800
C297        C  0.34783857  0.30925934  0.36471411    -0.21100
C298        C  0.34348374  0.31652281  0.32996602    -0.09100
C299        C  0.35695689  0.34788097  0.31958259     0.29800
C300        C  0.36852527  0.37298046  0.34377936    -0.21100
C301        C  0.36959023  0.36655577  0.37853784    -0.09100
C302        C  0.36064599  0.33403308  0.38872984     0.29800
F303        F  0.36353911  0.32650617  0.42201678    -0.19600
H304        H  0.34135178  0.28454817  0.37379116     0.18100
H305        H  0.37756193  0.39728529  0.33523378     0.18100
F306        F  0.35755262  0.35491860  0.28608142    -0.19600
C307        C  0.05000173  0.34343512  0.02805834    -0.21100
C308        C  0.07771387  0.32546710  0.01060884    -0.09100
C309        C  0.09669448  0.34293593  0.98617808     0.29800
C310        C  0.08842438  0.38021549  0.48591436    -0.21100
C311        C  0.06810510  0.40035404  0.50952106    -0.09100
C312        C  0.04818423  0.37889202  0.02853426     0.29800
F313        F  0.02719325  0.39564320  0.05199056    -0.19600
H314        H  0.03442285  0.33150641  0.04707131     0.18100
H315        H  0.10225543  0.39161221  0.46530361     0.18100
F316        F  0.12206533  0.32702261  0.96667432    -0.19600
C317        C  0.37236724  0.00127392  0.29193325    -0.21100
C318        C  0.36179877  0.99572087  0.32539439    -0.09100
C319        C  0.32626649  0.00127793  0.33469643     0.29800
C320        C  0.30464624  0.02005972  0.31396645    -0.21100
C321        C  0.31855893  0.03312138  0.28421113    -0.09100
C322        C  0.35041945  0.01939908  0.27100413     0.29800
F323        F  0.36123609  0.02488417  0.23885038    -0.19600
H324        H  0.39867231  0.99435675  0.28294272     0.18100
H325        H  0.27821111  0.02683847  0.32265853     0.18100
F326        F  0.31347973  0.99168014  0.36500107    -0.19600
C327        C  0.31728487  0.42820080  0.07778930    -0.21100
C328        C  0.32570927  0.39363407  0.08241512    -0.09100
C329        C  0.35230566  0.37729665  0.06212066     0.29800
C330        C  0.36892002  0.39455790  0.03734891    -0.21100
C331        C  0.36033592  0.42854240  0.03261556    -0.09100
C332        C  0.33499714  0.44580479  0.05301366     0.29800
F333        F  0.32791720  0.47940009  0.04923916    -0.19600
H334        H  0.29669007  0.44143997  0.09231386     0.18100
H335        H  0.38074704  0.38106746  0.51596925     0.18100
F336        F  0.36084760  0.34376019  0.06473810    -0.19600
C337        C  0.09690380  0.09673365  0.38386380    -0.21100
C338        C  0.07750566  0.11160914  0.35784855    -0.09100
C339        C  0.05158411  0.09117486  0.34010134     0.29800
C340        C  0.05148879  0.05589147  0.34280602    -0.21100
C341        C  0.07394763  0.04053957  0.36589112    -0.09100
C342        C  0.09579325  0.06160073  0.38746348     0.29800
F343        F  0.11784450  0.55026447  0.41083635    -0.19600
H344        H  0.11647226  0.11122757  0.39867569     0.18100
H345        H  0.03389972  0.04050642  0.32644780     0.18100
F346        F  0.03107738  0.10379261  0.31517124    -0.19600
C347        C  0.37350551  0.12007802  0.03397198    -0.21100
C348        C  0.33722516  0.11764797  0.04037136    -0.09100
C349        C  0.31677539  0.09451645  0.01908698     0.29800
C350        C  0.33273639  0.07301475  0.99403647    -0.21100
C351        C  0.36903648  0.07518766  0.98808189    -0.09100
C352        C  0.38915295  0.09953432  0.00781399     0.29800
F353        F  0.42433734  0.10302789  0.00257865    -0.19600
H354        H  0.38987453  0.13816814  0.04860454     0.18100
H355        H  0.31952926  0.05724816  0.47798939     0.18100
F356        F  0.28105853  0.09249335  0.02263049    -0.19600
C357        C  0.04951786  0.33742074  0.31588580    -0.21100
C358        C  0.06344969  0.35592028  0.28939175    -0.09100
C359        C  0.06772925  0.39159803  0.29546310     0.29800
C360        C  0.06797906  0.40576098  0.32886673    -0.21100
C361        C  0.06152288  0.38522955  0.35628478    -0.09100
C362        C  0.05074979  0.35117771  0.34934535     0.29800
F363        F  0.04384720  0.33035329  0.37495875    -0.19600
H364        H  0.04411176  0.31033243  0.31167628     0.18100
H365        H  0.07279493  0.43288864  0.33317600     0.18100
F366        F  0.07109883  0.41303965  0.26972646    -0.19600
C367        C  0.04476487  0.10415172  0.05637169    -0.21100
C368        C  0.05816323  0.08567978  0.08333730    -0.09100
C369        C  0.06086324  0.04989563  0.07823792     0.29800
C370        C  0.06272734  0.03535849  0.04508909    -0.21100
C371        C  0.05796236  0.05578684  0.01714827    -0.09100
C372        C  0.04669802  0.08992633  0.02314214     0.29800
F373        F  0.03813734  0.10983865  0.49778341    -0.19600
H374        H  0.03984591  0.13141571  0.06008087     0.18100
H375        H  0.06574717  0.51257935  0.03734389     0.18100
F376        F  0.06200841  0.02912239  0.10477107    -0.19600
C377        C  0.08067342  0.10588259  0.60934691     0.86700
C378        C  0.10551195  0.12906149  0.58944182    -0.53500
C379        C  0.12769305  0.14931787  0.60863390     0.09700
C380        C  0.12325789  0.14385363  0.64715679     0.20600
C381        C  0.10665790  0.08477552  0.63022881    -0.54200
C382        C  0.13042186  0.10338758  0.64874493     0.09800
C383        C  0.06056704  0.13054776  0.63471281    -0.53800
C384        C  0.08160977  0.15207479  0.65433051     0.10300
H385        H  0.10605889  0.12913413  0.56175043     0.14900
H386        H  0.14160531  0.16012700  0.66312788     0.00600
H387        H  0.10976740  0.05737739  0.62778553     0.15200
H388        H  0.03198770  0.13355465  0.63389657     0.14900
C389        C  0.06629350  0.25358306  0.70205483     0.30300
C390        C  0.06685043  0.18723782  0.67192922     0.30300
C391        C  0.08264607  0.22547181  0.72242948    -0.05900
C392        C  0.02727732  0.23720141  0.69474649    -0.06700
C393        C  0.08147818  0.24867785  0.66629440    -0.06600
C394        C  0.08178200  0.19212064  0.70784622    -0.05900
C395        C  0.02770478  0.20322137  0.67840336    -0.06700
C396        C  0.08286295  0.21528357  0.65178692    -0.06600
C397        C  0.07518759  0.17165349  0.73464673    -0.32000
N398        N  0.07632767  0.19000128  0.76470835     0.14500
C399        C  0.07931607  0.22292863  0.75721894    -0.32000
H400        H  0.07468753  0.24411844  0.77549552     0.16500
C401        C  0.49092890  0.19390514  0.67357092    -0.31000
N402        N  0.46882741  0.21968014  0.68665842     0.13200
C403        C  0.49095155  0.24549821  0.69947610    -0.31000
C404        C  0.07926533  0.21760301  0.61699500    -0.31300
N405        N  0.07585042  0.25039888  0.60935153     0.13700
H406        H  0.07449766  0.19639857  0.59880271     0.16400
C407        C  0.07471465  0.26901106  0.63927305    -0.31300
H408        H  0.06476183  0.29496238  0.64132400     0.16400
H409        H  0.48152555  0.26955732  0.71106094     0.16400
H410        H  0.06619531  0.14545744  0.73239142     0.16400
H411        H  0.48149409  0.17000347  0.66175133     0.16400
C412        C  0.08250409  0.33450686  0.76565901     0.86700
C413        C  0.10907195  0.31137100  0.78394452    -0.53500
C414        C  0.13015690  0.29117358  0.76370763     0.09700
C415        C  0.12323961  0.29712999  0.72525866     0.20600
C416        C  0.10672563  0.35606809  0.74358832    -0.54200
C417        C  0.12949867  0.33779356  0.72326548     0.09800
C418        C  0.06122316  0.30983149  0.74098137    -0.53800
C419        C  0.08132755  0.28876525  0.71978242     0.10300
H420        H  0.11139392  0.31093146  0.81154831     0.14900
H421        H  0.14082651  0.28104793  0.70832600     0.00600
H422        H  0.10950205  0.38350498  0.74651521     0.15200
H423        H  0.03281469  0.30652716  0.74323326     0.14900
C424        C  0.16307143  0.08590021  0.66571561     0.30300
C425        C  0.22193381  0.07279794  0.70420986     0.30300
C426        C  0.16526613  0.10322617  0.70109445    -0.05900
C427        C  0.16923128  0.04581595  0.67411463    -0.06700
C428        C  0.19957167  0.09500892  0.65027986    -0.06600
C429        C  0.19393531  0.09529548  0.72067431    -0.05900
C430        C  0.20028299  0.04034394  0.69385581    -0.06700
C431        C  0.22861752  0.08840409  0.67034100    -0.06600
C432        C  0.18428462  0.10060560  0.75396752    -0.32000
N433        N  0.15294025  0.11687617  0.75485333     0.14500
C434        C  0.14013097  0.11668753  0.72279573    -0.32000
H435        H  0.11337000  0.12147432  0.71575295     0.16500
C436        C  0.20309978  0.00590933  0.69999822    -0.31000
N437        N  0.17197748  0.48966404  0.68788320     0.13200
C438        C  0.15483300  0.01202608  0.66916693    -0.31000
C439        C  0.25818660  0.10115738  0.65561149    -0.31300
N440        N  0.24869489  0.11772539  0.62769489     0.13700
H441        H  0.28470261  0.09712006  0.66435966     0.16400
C442        C  0.21353508  0.11028926  0.62215537    -0.31300
H443        H  0.19918791  0.11407198  0.59886060     0.16400
H444        H  0.12899052  0.50650821  0.65519914     0.16400
H445        H  0.19758908  0.09018228  0.77542872     0.16400
H446        H  0.21995837  0.49523924  0.71692551     0.16400
C447        C  0.31928655  0.14427149  0.56519691     0.86700
C448        C  0.29661281  0.12094155  0.58650335    -0.53500
C449        C  0.27316454  0.13724515  0.60755838     0.09700
C450        C  0.27701719  0.17724470  0.60770064     0.20600
C451        C  0.29312570  0.16795240  0.54778143    -0.54200
C452        C  0.26945751  0.18449926  0.56848837     0.09800
C453        C  0.33968060  0.16756724  0.59278341    -0.53800
C454        C  0.31850021  0.18492242  0.61666891     0.10300
H455        H  0.29814520  0.09317741  0.58424471     0.14900
H456        H  0.25869580  0.19092490  0.62582622     0.00600
H457        H  0.29180806  0.16901532  0.52029156     0.15200
H458        H  0.36829780  0.16805239  0.59500224     0.14900
C459        C  0.10036912  0.13292486  0.83521552     0.86700
C460        C  0.12014941  0.11217384  0.80678467    -0.53500
C461        C  0.13612806  0.13132678  0.78451994     0.09700
C462        C  0.13289793  0.16950820  0.79248236     0.20600
C463        C  0.12945639  0.15655001  0.85258504    -0.54200
C464        C  0.14678669  0.17574193  0.82962176     0.09800
C465        C  0.07575954  0.15771450  0.81654016    -0.53800
C466        C  0.09319554  0.17629013  0.79369743     0.10300
H467        H  0.12045428  0.08437651  0.80361896     0.14900
H468        H  0.14659897  0.18408390  0.77297775     0.00600
H469        H  0.13646713  0.15696303  0.87939024     0.15200
H470        H  0.04715025  0.15857500  0.81879166     0.14900
C471        C  0.33274637  0.20410469  0.65231675     0.30300
C472        C  0.33253211  0.23637487  0.71862965     0.30300
C473        C  0.31634151  0.18499490  0.68099626    -0.05900
C474        C  0.37165855  0.21133658  0.66905093    -0.06700
C475        C  0.31748131  0.24031462  0.65661118    -0.06600
C476        C  0.31680046  0.20061890  0.71415965    -0.05900
C477        C  0.37154072  0.22858404  0.70268522    -0.06700
C478        C  0.31646831  0.25569877  0.68986313    -0.06600
C479        C  0.32229370  0.17421209  0.73549550    -0.32000
N480        N  0.32199217  0.14371305  0.71772405     0.14500
C481        C  0.32006190  0.15041885  0.68454408    -0.32000
H482        H  0.32684201  0.13207997  0.66399372     0.16500
C483        C  0.40781540  0.23347425  0.71166671    -0.31000
N484        N  0.43001506  0.21979112  0.68640065     0.13200
C485        C  0.40801766  0.20622616  0.66075937    -0.31000
C486        C  0.32024308  0.29024286  0.68693577    -0.31300
N487        N  0.32276570  0.29733605  0.65401310     0.13700
H488        H  0.32665655  0.30832240  0.70785782     0.16400
C489        C  0.32385665  0.26703254  0.63589685    -0.31300
H490        H  0.33390453  0.26443537  0.61013304     0.16400
H491        H  0.41757880  0.19387256  0.63719166     0.16400
H492        H  0.33301018  0.17729270  0.76098899     0.16400
H493        H  0.41717180  0.24581873  0.73537866     0.16400
C494        C  0.29985120  0.37280226  0.60238979     0.86700
C495        C  0.27925278  0.34700687  0.57873648    -0.53500
C496        C  0.26284339  0.32277121  0.59555282     0.09700
C497        C  0.26632499  0.32707351  0.63427198     0.20600
C498        C  0.27122368  0.38856039  0.62708216    -0.54200
C499        C  0.25331101  0.36418312  0.64382404     0.09800
C500        C  0.32392010  0.35100506  0.62480635    -0.53800
C501        C  0.30609786  0.32673290  0.64080238     0.10300
H502        H  0.27948976  0.34660928  0.55099954     0.14900
H503        H  0.25231095  0.30661352  0.64728910     0.00600
H504        H  0.26483415  0.41546161  0.62998542     0.15200
H505        H  0.35265616  0.35241141  0.62524852     0.14900
C506        C  0.30193765  0.06404211  0.76514089     0.86700
C507        C  0.28375257  0.08881269  0.79196512    -0.53500
C508        C  0.26588611  0.11454885  0.77785329     0.09700
C509        C  0.26721165  0.11308246  0.73882687     0.20600
C510        C  0.27271321  0.05113801  0.74065533    -0.54200
C511        C  0.25430258  0.07661245  0.72684464     0.09800
C512        C  0.32545958  0.08835671  0.74490632    -0.53800
C513        C  0.30660619  0.11388750  0.73108188     0.10300
H514        H  0.28657936  0.08750027  0.81943115     0.14900
H515        H  0.25240740  0.13448495  0.72775197     0.00600
H516        H  0.26724334  0.02430767  0.73549042     0.15200
H517        H  0.35416921  0.08804027  0.74455235     0.14900
C518        C  0.16149729  0.35552938  0.70517074     0.30300
C519        C  0.22053866  0.36833315  0.66653491     0.30300
C520        C  0.16346839  0.33826447  0.66962601    -0.05900
C521        C  0.16753634  0.39550993  0.69640909    -0.06700
C522        C  0.19819911  0.34631110  0.72059057    -0.06600
C523        C  0.19220809  0.34581685  0.65006524    -0.05900
C524        C  0.19845285  0.40082733  0.67664217    -0.06700
C525        C  0.22723038  0.35258590  0.70075644    -0.06600
C526        C  0.18229308  0.34021053  0.61665278    -0.32000
N527        N  0.15067155  0.32459173  0.61557339     0.14500
C528        C  0.13802515  0.32540583  0.64767006    -0.32000
H529        H  0.11122186  0.32134750  0.65459068     0.16500
C530        C  0.20041216  0.43511862  0.66969437    -0.31000
N531        N  0.17238817  0.45274605  0.68365340     0.13200
C532        C  0.15251014  0.42919914  0.70054172    -0.31000
C533        C  0.25654073  0.33860468  0.71574413    -0.31300
N534        N  0.24690039  0.32185099  0.74348850     0.13700
H535        H  0.28308128  0.34206269  0.70731206     0.16400
C536        C  0.21182809  0.33017341  0.74860852    -0.31300
H537        H  0.19713760  0.32620285  0.77148169     0.16400
H538        H  0.12933899  0.43597759  0.71559418     0.16400
H539        H  0.19579847  0.34984823  0.59510923     0.16400
H540        H  0.22159005  0.44696791  0.65630118     0.16400
C541        C  0.09643784  0.30440869  0.53581634     0.86700
C542        C  0.11727918  0.32667381  0.56276961    -0.53500
C543        C  0.13417583  0.30877343  0.58597272     0.09700
C544        C  0.13118958  0.27027733  0.57965363     0.20600
C545        C  0.12501196  0.28016118  0.51876146    -0.54200
C546        C  0.14368638  0.26251955  0.54218920     0.09800
C547        C  0.07300702  0.28080128  0.55652369    -0.53800
C548        C  0.09156268  0.26354109  0.57979555     0.10300
H549        H  0.11707141  0.35449858  0.56456244     0.14900
H550        H  0.14574489  0.25635796  0.59936922     0.00600
H551        H  0.13071570  0.27765838  0.49178174     0.15200
H552        H  0.04427559  0.28028061  0.55534059     0.14900
C553        C  0.32053719  0.29642384  0.80512125     0.86700
C554        C  0.29418331  0.31914423  0.78616147    -0.53500
C555        C  0.27151050  0.30244317  0.76446385     0.09700
C556        C  0.27738072  0.26237913  0.76394881     0.20600
C557        C  0.29580669  0.27185233  0.82354945    -0.54200
C558        C  0.27188549  0.25443702  0.80335443     0.09800
C559        C  0.34004662  0.27419600  0.77663249    -0.53800
C560        C  0.31864254  0.25582836  0.75396516     0.10300
H561        H  0.29280906  0.34680226  0.78994777     0.14900
H562        H  0.25918882  0.24806732  0.74612106     0.00600
H563        H  0.29431956  0.27106290  0.85100046     0.15200
H564        H  0.36858533  0.27477330  0.77363951     0.14900
C565        C  0.17696832  0.24040255  0.53727171     0.30300
C566        C  0.23656781  0.20370468  0.55310343     0.30300
C567        C  0.17083011  0.20520852  0.55143947    -0.05900
C568        C  0.19967376  0.23088560  0.50587112    -0.06700
C569        C  0.20484154  0.25803298  0.56042317    -0.06600
C570        C  0.20042033  0.18885945  0.56377885    -0.05900
C571        C  0.23066703  0.21140713  0.51237636    -0.06700
C572        C  0.23390282  0.23902016  0.56950201    -0.06600
C573        C  0.18723673  0.17464793  0.59311981    -0.32000
N574        N  0.15118499  0.17300014  0.59223976     0.14500
C575        C  0.14130787  0.19188428  0.56599535    -0.32000
H576        H  0.11437829  0.19693096  0.55835938     0.16500
C577        C  0.24743074  0.20375509  0.97897942    -0.31000
N578        N  0.22742543  0.21999963  0.95461968     0.13200
C579        C  0.19926849  0.23430972  0.97152437    -0.31000
C580        C  0.25953962  0.26122084  0.58045957    -0.31300
N581        N  0.24720812  0.29332032  0.57872730     0.13700
H582        H  0.28642493  0.25423358  0.58435812     0.16400
C583        C  0.21512423  0.29164091  0.56356475    -0.31300
H584        H  0.20110657  0.31286800  0.55325536     0.16400
H585        H  0.17790620  0.24743653  0.95919508     0.16400
H586        H  0.20261297  0.17009829  0.61545276     0.16400
H587        H  0.27096306  0.18887557  0.97280225     0.16400
C588        C  0.18010729  0.19781903  0.83417220     0.30300
C589        C  0.23967033  0.23457315  0.81923318     0.30300
C590        C  0.17382088  0.23282522  0.81946387    -0.05900
C591        C  0.20246573  0.20762438  0.86589415    -0.06700
C592        C  0.20827512  0.17993014  0.81151638    -0.06600
C593        C  0.20325569  0.24910322  0.80773209    -0.05800
C594        C  0.23334562  0.22717735  0.85999579    -0.06700
C595        C  0.23786141  0.19863608  0.80350353    -0.06600
C596        C  0.18997050  0.26479959  0.77899241    -0.32000
N597        N  0.15385821  0.26647089  0.77928267     0.14500
C598        C  0.14424192  0.24693892  0.80505031    -0.32000
H599        H  0.11746345  0.24243065  0.81292832     0.16500
C600        C  0.24796603  0.23182566  0.89399887    -0.31000
N601        N  0.22785126  0.21524785  0.91773749     0.13200
C602        C  0.20011145  0.20101762  0.90004088    -0.31000
C603        C  0.26429884  0.17555088  0.79593802    -0.31300
N604        N  0.25170972  0.14352804  0.79722132     0.13700
H605        H  0.29171560  0.18181525  0.79493844     0.16400
C606        C  0.21846704  0.14610336  0.80939338    -0.31300
H607        H  0.20348420  0.12521404  0.81876817     0.16400
H608        H  0.17861631  0.18786405  0.91170675     0.16400
H609        H  0.20531399  0.27031816  0.75724358     0.16400
H610        H  0.27112934  0.24688691  0.90084005     0.16400
O611        O  0.53554011  0.05212351  0.96108926    -0.75000
O612        O  0.07343067  0.51863083  0.97333980    -0.53900
C613        C  0.05879653  0.04010600  0.98231357     0.78700
O614        O  0.41528811  0.44895948  0.02308436    -0.59600
O615        O  0.37392732  0.45122401  0.98029744    -0.52700
C616        C  0.38394398  0.44561458  0.01081341     0.70700
O617        O  0.53683045  0.45041618  0.01896674    -0.74200
O618        O  0.07986631  0.44661868  0.97832106    -0.54800
C619        C  0.06391598  0.43371206  0.00301348     0.76700
O620        O  0.41537762  0.05977215  0.95001696    -0.59300
O621        O  0.37419150  0.02013041  0.95825068    -0.52500
C622        C  0.38668353  0.05048937  0.96368977     0.73300
Zr623      Zr  0.47368201  0.03752678  0.96200906     2.54700
O624        O  0.47185375  0.05926251  0.52092911    -0.79900
O625        O  0.48082558  0.09821575  0.95231943    -0.93300
Zr626      Zr  0.47428824  0.44860238  0.00091818     2.64700
O627        O  0.47593880  0.45924710  0.56061188    -0.98300
O628        O  0.46898490  0.38985751  0.01755097    -0.80300
O629        O  0.50795592  0.49386013  0.98173226    -0.83700
O630        O  0.44056347  0.49541949  0.98170930    -2.18400
O631        O  0.41966391  0.99102715  0.84150443    -0.67100
O632        O  0.37559512  0.98805710  0.88077052    -0.51700
C633        C  0.38690682  0.99084737  0.85024939     0.71700
O634        O  0.53408953  0.38571220  0.91367835    -0.60000
O635        O  0.07498811  0.43148277  0.89892165    -0.52000
C636        C  0.06015581  0.40252234  0.89290472     0.73500
O637        O  0.41396964  0.38469698  0.91999282    -0.71400
O638        O  0.37585127  0.42502558  0.90459599    -0.50100
C639        C  0.38696880  0.39388280  0.90298821     0.74900
O640        O  0.54064815  0.98693531  0.85642199    -0.66700
O641        O  0.08435635  0.49492279  0.89487185    -0.53900
C642        C  0.06803286  0.99908517  0.87013749     0.73200
Zr643      Zr  0.47725429  0.99476152  0.86854775     2.77500
O644        O  0.48971583  0.98811975  0.80764489    -0.97500
O645        O  0.47183287  0.05502594  0.85649452    -0.78300
Zr646      Zr  0.47339854  0.40366776  0.90805314     2.70100
O647        O  0.46931265  0.38524980  0.84775816    -0.79500
O648        O  0.47632430  0.34172598  0.91114721    -0.98600
Zr649      Zr  0.54475762  0.47038765  0.93645899     2.21500
Zr650      Zr  0.40630886  0.47337892  0.93379035     2.11100
O651        O  0.44147330  0.44998821  0.88706207    -2.47300
O652        O  0.50855096  0.44917229  0.88910600    -0.79300
O653        O  0.44062075  0.01742186  0.91338380    -0.71500
O654        O  0.50798998  0.42440738  0.95542938    -2.32500
O655        O  0.50964225  0.01577312  0.91655998    -2.28700
O656        O  0.43909071  0.42634666  0.95454145    -0.73300
H657        H  0.42294000  0.50416306  0.49744119     0.78700
H658        H  0.51960724  0.40537624  0.96540454     0.79800
H659        H  0.42735239  0.43998944  0.86853505     0.82000
H660        H  0.52252282  0.03453236  0.90810082     0.79600
H661        H  0.46541275  0.37607976  0.99586482     0.42700
H662        H  0.47532017  0.33793270  0.93587479     0.41600
H663        H  0.44657398  0.37280982  0.84556157     0.41300
H664        H  0.47825137  0.96633024  0.79991546     0.39200
H665        H  0.46299531  0.06677577  0.87780496     0.42400
H666        H  0.45797372  0.10636522  0.94325795     0.37200
H667        H  0.46996310  0.54086596  0.53208627     0.43300
H668        H  0.46002003  0.47906469  0.56561921     0.39700
H669        H  0.47540074  0.00608036  0.79720276     0.44600
H670        H  0.50275598  0.10028009  0.43187831     0.43300
H671        H  0.46391675  0.43974991  0.57057890     0.43500
H672        H  0.45350358  0.33293485  0.90178945     0.43800
C673        C  0.35147289  0.31030757  0.86306997    -0.21100
C674        C  0.34461960  0.31875489  0.82910581    -0.09100
C675        C  0.35630107  0.35110814  0.81939608     0.29800
C676        C  0.36752470  0.37603901  0.84408063    -0.21100
C677        C  0.37090945  0.36836306  0.87844246    -0.09100
C678        C  0.36476985  0.33467935  0.88733989     0.29800
F679        F  0.37096200  0.32548965  0.91970477    -0.19600
H680        H  0.34644278  0.28489851  0.87124112     0.18100
H681        H  0.37488719  0.40108530  0.83611141     0.18100
F682        F  0.35589403  0.35907283  0.78612781    -0.19600
C683        C  0.05037376  0.34895565  0.53559239    -0.21100
C684        C  0.07548922  0.32949043  0.51585131    -0.09100
C685        C  0.09195311  0.34515976  0.48880152     0.29800
C686        C  0.09257212  0.37819105  0.98440132    -0.21100
C687        C  0.06967322  0.39681436  0.00691698    -0.09100
C688        C  0.04863474  0.38429126  0.53409988     0.29800
F689        F  0.02949095  0.40275116  0.55793888    -0.19600
H690        H  0.03716558  0.33826451  0.55692341     0.18100
H691        H  0.10831065  0.39100128  0.96601923     0.18100
F692        F  0.11362336  0.32751356  0.46665408    -0.19600
C693        C  0.37368896  0.00355776  0.79072808    -0.21100
C694        C  0.36115332  0.99663514  0.82326761    -0.09100
C695        C  0.32504294  0.00134773  0.83063343     0.29800
C696        C  0.30440231  0.02017747  0.80908020    -0.21100
C697        C  0.32007556  0.03473337  0.78089268    -0.09100
C698        C  0.35296525  0.02222054  0.76926493     0.29800
F699        F  0.36569615  0.02890830  0.73807560    -0.19600
H700        H  0.40055673  0.99727744  0.78298646     0.18100
H701        H  0.27730533  0.02620069  0.81625553     0.18100
F702        F  0.31059973  0.99085604  0.85988146    -0.19600
C703        C  0.31719054  0.43032305  0.57919990    -0.21100
C704        C  0.32154228  0.39467285  0.58030172    -0.09100
C705        C  0.34550044  0.37744248  0.55760663     0.29800
C706        C  0.36256936  0.39488055  0.53317101    -0.21100
C707        C  0.35764572  0.42994345  0.53162097    -0.09100
C708        C  0.33586344  0.44809379  0.55513894     0.29800
F709        F  0.33330093  0.48267681  0.55515964    -0.19600
H710        H  0.29971751  0.44448819  0.59657508     0.18100
H711        H  0.38926368  0.38145057  0.02207011     0.18100
F712        F  0.35164005  0.34322486  0.55834865    -0.19600
C713        C  0.10230136  0.08975183  0.87926800    -0.21100
C714        C  0.08199165  0.10599793  0.85474910    -0.09100
C715        C  0.05507272  0.08658403  0.83715743     0.29800
C716        C  0.05221459  0.05161151  0.84091043    -0.21100
C717        C  0.07431823  0.03521064  0.86345869    -0.09100
C718        C  0.09896432  0.05483081  0.88331038     0.29800
F719        F  0.11924958  0.54864278  0.90791963    -0.19600
H720        H  0.12374026  0.10295894  0.89268978     0.18100
H721        H  0.03303446  0.03719047  0.82545044     0.18100
F722        F  0.03527934  0.09970180  0.81200242    -0.19600
C723        C  0.37477030  0.12539054  0.53094644    -0.21100
C724        C  0.33854846  0.12228559  0.53751816    -0.09100
C725        C  0.31868219  0.09837584  0.51654839     0.29800
C726        C  0.33522321  0.07621630  0.49237891    -0.21100
C727        C  0.37156700  0.07850606  0.48677921    -0.09100
C728        C  0.39101921  0.10417241  0.50554289     0.29800
F729        F  0.42618688  0.10811771  0.50031079    -0.19600
H730        H  0.39066233  0.14422803  0.54514205     0.18100
H731        H  0.31660838  0.05481458  0.97910477     0.18100
F732        F  0.28300569  0.09581061  0.51997248    -0.19600
C733        C  0.04925988  0.33597351  0.82075494    -0.21100
C734        C  0.06058258  0.35419550  0.79285856    -0.09100
C735        C  0.06173450  0.39014448  0.79718044     0.29800
C736        C  0.06311842  0.40568361  0.83000728    -0.21100
C737        C  0.06018237  0.38591723  0.85854334    -0.09100
C738        C  0.05098790  0.35124546  0.85364389     0.29800
F739        F  0.04608621  0.33158355  0.88064096    -0.19600
H740        H  0.04550931  0.30852732  0.81786688     0.18100
H741        H  0.06628097  0.43310598  0.83302255     0.18100
F742        F  0.06148744  0.41023761  0.77012892    -0.19600
C743        C  0.04318803  0.10376156  0.55716769    -0.21100
C744        C  0.05730886  0.08562387  0.58403123    -0.09100
C745        C  0.06072816  0.04984721  0.57893596     0.29800
C746        C  0.06270666  0.03534267  0.54580005    -0.21100
C747        C  0.05770550  0.05581471  0.51795787    -0.09100
C748        C  0.04550069  0.08964736  0.52394055     0.29800
F749        F  0.04011026  0.11032694  0.99698785    -0.19600
H750        H  0.03758184  0.13090013  0.56089742     0.18100
H751        H  0.06206009  0.51238514  0.54118227     0.18100
F752        F  0.06292330  0.02909719  0.60543750    -0.19600
C753        C  0.07883861  0.60722399  0.10912151     0.86700
C754        C  0.10455637  0.63018960  0.09015132    -0.53500
C755        C  0.12618593  0.65028340  0.10993456     0.09700
C756        C  0.12074382  0.64442717  0.14837510     0.20600
C757        C  0.10389263  0.58553035  0.13057232    -0.54200
C758        C  0.12732606  0.60378757  0.15005518     0.09800
C759        C  0.05832146  0.63181838  0.13414807    -0.53800
C760        C  0.07903446  0.65290315  0.15447895     0.10300
H761        H  0.10578850  0.63057396  0.06249712     0.14900
H762        H  0.13875446  0.66043575  0.16498436     0.00600
H763        H  0.10652402  0.55807244  0.12811220     0.15200
H764        H  0.02982615  0.63523296  0.13252885     0.14900
C765        C  0.06358747  0.75435332  0.20153095     0.30300
C766        C  0.06417829  0.68808186  0.17157052     0.30300
C767        C  0.07961404  0.72632755  0.22198601    -0.05900
C768        C  0.02444429  0.73803823  0.19389630    -0.06700
C769        C  0.07908611  0.74939732  0.16599892    -0.06600
C770        C  0.07898256  0.69302550  0.20746953    -0.05900
C771        C  0.02497326  0.70404058  0.17763114    -0.06700
C772        C  0.08040290  0.71604915  0.15145199    -0.06600
C773        C  0.07291453  0.67254380  0.23428639    -0.32000
N774        N  0.07394707  0.69110505  0.26422534     0.14500
C775        C  0.07636145  0.72399615  0.25673633    -0.32000
H776        H  0.07199015  0.74519995  0.27508202     0.16500
C777        C  0.48833797  0.69504391  0.17106663    -0.31000
N778        N  0.46628682  0.72103692  0.18368668     0.13200
C779        C  0.48832027  0.74680883  0.19666216    -0.31000
C780        C  0.07686887  0.71855554  0.11668698    -0.31300
N781        N  0.07381054  0.75145172  0.10918339     0.13700
H782        H  0.07166145  0.69743804  0.09850651     0.16400
C783        C  0.07275988  0.76994883  0.13913523    -0.31300
H784        H  0.06297009  0.79594923  0.14130893     0.16400
H785        H  0.47886133  0.77083210  0.20829765     0.16400
H786        H  0.06342970  0.64655913  0.23213440     0.16400
H787        H  0.47889286  0.67102588  0.15951779     0.16400
C788        C  0.08250401  0.83422156  0.26552498     0.86700
C789        C  0.10912986  0.81066442  0.28300688    -0.53500
C790        C  0.12943902  0.79034926  0.26216514     0.09700
C791        C  0.12169444  0.79653058  0.22399031     0.20600
C792        C  0.10643724  0.85555357  0.24309238    -0.54200
C793        C  0.12854762  0.83697419  0.22237519     0.09800
C794        C  0.06026337  0.81014710  0.24110505    -0.53800
C795        C  0.07951768  0.78907130  0.21922818     0.10300
H796        H  0.11201150  0.81007739  0.31056921     0.14900
H797        H  0.13868888  0.78032072  0.20658420     0.00600
H798        H  0.10973531  0.88287428  0.24595239     0.15200
H799        H  0.03187312  0.80721001  0.24395505     0.14900
C800        C  0.15956133  0.58605263  0.16782988     0.30300
C801        C  0.21862377  0.57396189  0.20666638     0.30300
C802        C  0.16085206  0.60284835  0.20359233    -0.05900
C803        C  0.16667036  0.54595165  0.17588909    -0.06700
C804        C  0.19589945  0.59615508  0.15289702    -0.06600
C805        C  0.18998555  0.59589088  0.22330183    -0.05900
C806        C  0.19766261  0.54100807  0.19593618    -0.06700
C807        C  0.22496654  0.59010067  0.17297962    -0.06600
C808        C  0.17974419  0.59996385  0.25665667    -0.32000
N809        N  0.14695507  0.61346443  0.25773342     0.14500
C810        C  0.13449954  0.61342594  0.22550902    -0.32000
H811        H  0.10742428  0.61668189  0.21834691     0.16500
C812        C  0.20098894  0.50649515  0.20206856    -0.31000
N813        N  0.17176516  0.98822419  0.19028641     0.13200
C814        C  0.15311429  0.51180516  0.17055789    -0.31000
C815        C  0.25430912  0.60314176  0.15800862    -0.31300
N816        N  0.24460467  0.61941893  0.12992996     0.13700
H817        H  0.28088093  0.59896088  0.16641863     0.16400
C818        C  0.20949568  0.61153483  0.12464983    -0.31300
H819        H  0.19491607  0.61500117  0.10141333     0.16400
H820        H  0.12961297  0.00503933  0.15669786     0.16400
H821        H  0.19382061  0.59026496  0.27802176     0.16400
H822        H  0.21989213  0.99351185  0.21940789     0.16400
C823        C  0.31548998  0.64421292  0.06665585     0.86700
C824        C  0.29203588  0.62138897  0.08782857    -0.53500
C825        C  0.26901104  0.63830019  0.10898137     0.09700
C826        C  0.27365250  0.67826422  0.10859186     0.20600
C827        C  0.29004569  0.66819670  0.04881553    -0.54200
C828        C  0.26657015  0.68526106  0.06925880     0.09800
C829        C  0.33608625  0.66731309  0.09405081    -0.53800
C830        C  0.31514553  0.68535680  0.11734323     0.10300
H831        H  0.29295491  0.59360638  0.08558088     0.14900
H832        H  0.25570235  0.69262712  0.12656720     0.00600
H833        H  0.28896843  0.66909427  0.02129465     0.15200
H834        H  0.36464114  0.66738279  0.09672056     0.14900
C835        C  0.09546240  0.63775154  0.33790950     0.86700
C836        C  0.11374906  0.61386769  0.31055521    -0.53500
C837        C  0.13099908  0.63044039  0.28684729     0.09700
C838        C  0.13000225  0.66905223  0.29241812     0.20600
C839        C  0.12589952  0.66068010  0.35343949    -0.54200
C840        C  0.14451110  0.67678699  0.32918132     0.09800
C841        C  0.07222732  0.66226169  0.31778025    -0.53800
C842        C  0.09054283  0.67790391  0.29349612     0.10300
H843        H  0.11218341  0.58609943  0.30931779     0.14900
H844        H  0.14437026  0.68175506  0.27200061     0.00600
H845        H  0.13242210  0.66320948  0.38029823     0.15200
H846        H  0.04376388  0.66512427  0.32033276     0.14900
C847        C  0.32984340  0.70462559  0.15235508     0.30300
C848        C  0.33095239  0.73703956  0.21815951     0.30300
C849        C  0.31392483  0.68567421  0.18129592    -0.05900
C850        C  0.36903785  0.71179836  0.16813346    -0.06700
C851        C  0.31484108  0.74090072  0.15646575    -0.06600
C852        C  0.31489530  0.70147301  0.21422104    -0.05900
C853        C  0.36958164  0.72912219  0.20165606    -0.06700
C854        C  0.31456640  0.75656909  0.18959513    -0.06600
C855        C  0.31995849  0.67527623  0.23588012    -0.32000
N856        N  0.31929660  0.64464289  0.21835184     0.14500
C857        C  0.31751940  0.65111699  0.18509516    -0.32000
H858        H  0.32401908  0.63256265  0.16463589     0.16500
C859        C  0.40590762  0.73450290  0.20973407    -0.31000
N860        N  0.42755554  0.72094509  0.18401532     0.13200
C861        C  0.40515598  0.70710818  0.15887927    -0.31000
C862        C  0.31936186  0.79098904  0.18615749    -0.31300
N863        N  0.32177787  0.79770674  0.15307190     0.13700
H864        H  0.32677146  0.80904710  0.20679312     0.16400
C865        C  0.32175894  0.76718254  0.13538211    -0.31300
H866        H  0.33184201  0.76395250  0.10966802     0.16400
H867        H  0.41426286  0.69493430  0.13505082     0.16400
H868        H  0.33033163  0.67854394  0.26146941     0.16400
H869        H  0.41572144  0.74715612  0.23311136     0.16400
C870        C  0.29796177  0.87329208  0.10143074     0.86700
C871        C  0.27680778  0.84780553  0.07801265    -0.53500
C872        C  0.26098382  0.82335665  0.09487155     0.09700
C873        C  0.26521798  0.82718381  0.13350964     0.20600
C874        C  0.26979852  0.88878867  0.12679108    -0.54200
C875        C  0.25226530  0.86407132  0.14356284     0.09800
C876        C  0.32251788  0.85127219  0.12328985    -0.53800
C877        C  0.30500167  0.82693078  0.13955181     0.10300
H878        H  0.27625776  0.84773603  0.05028655     0.14900
H879        H  0.25148539  0.80652704  0.14649651     0.00600
H880        H  0.26332787  0.91566735  0.12982773     0.15200
H881        H  0.35124671  0.85276598  0.12331588     0.14900
C882        C  0.30069316  0.56451393  0.26554700     0.86700
C883        C  0.28340758  0.58908213  0.29308072    -0.53500
C884        C  0.26469917  0.61466664  0.27975878     0.09700
C885        C  0.26490672  0.61383541  0.24079627     0.20600
C886        C  0.27064364  0.55198552  0.24172083    -0.54200
C887        C  0.25150518  0.57761205  0.22889309     0.09800
C888        C  0.32356719  0.58893731  0.24488752    -0.53800
C889        C  0.30424196  0.61475419  0.23200953     0.10300
H890        H  0.28722362  0.58762241  0.32043215     0.14900
H891        H  0.24969423  0.63536826  0.23044362     0.00600
H892        H  0.26532212  0.52520479  0.23620189     0.15200
H893        H  0.35223810  0.58845355  0.24354245     0.14900
C894        C  0.16075054  0.85414731  0.20463335     0.30300
C895        C  0.21959408  0.86739377  0.16629507     0.30300
C896        C  0.16233200  0.83754371  0.16879812    -0.05900
C897        C  0.16697084  0.89411618  0.19686455    -0.06700
C898        C  0.19735338  0.84433520  0.21985848    -0.06600
C899        C  0.19107283  0.84529504  0.14927384    -0.05900
C900        C  0.19781985  0.89969754  0.17722658    -0.06700
C901        C  0.22636503  0.85084289  0.20011401    -0.06600
C902        C  0.18050943  0.84128195  0.11579381    -0.32000
N903        N  0.14831521  0.82669731  0.11448151     0.14500
C904        C  0.13621573  0.82642321  0.14668541    -0.32000
H905        H  0.10935009  0.82281217  0.15372419     0.16500
C906        C  0.20001878  0.93408155  0.17118754    -0.31000
N907        N  0.17212784  0.95142976  0.18561331     0.13200
C908        C  0.15207094  0.92766482  0.20190335    -0.31000
C909        C  0.25591577  0.83789573  0.21563192    -0.31300
N910        N  0.24642120  0.82158068  0.24369044     0.13700
H911        H  0.28246304  0.84207243  0.20756659     0.16400
C912        C  0.21115389  0.82917780  0.24838607    -0.31300
H913        H  0.19650100  0.82540193  0.27133803     0.16400
H914        H  0.12889522  0.93420022  0.21704013     0.16400
H915        H  0.19410258  0.85121418  0.09443154     0.16400
H916        H  0.22121051  0.94620780  0.15809297     0.16400
C917        C  0.09395936  0.80479501  0.03491947     0.86700
C918        C  0.11452626  0.82776748  0.06158185    -0.53500
C919        C  0.13182709  0.81042651  0.08502594     0.09700
C920        C  0.12901468  0.77182628  0.07943625     0.20600
C921        C  0.12262820  0.78041874  0.01832349    -0.54200
C922        C  0.14145697  0.76339802  0.04208878     0.09800
C923        C  0.07072717  0.78137805  0.05607227    -0.53800
C924        C  0.08944990  0.76476478  0.07968321     0.10300
H925        H  0.11389931  0.85558290  0.06292187     0.14900
H926        H  0.14366842  0.75836862  0.09941694     0.00600
H927        H  0.12804153  0.77730816  0.99129797     0.15200
H928        H  0.04204412  0.78011285  0.05465445     0.14900
C929        C  0.31994716  0.79543011  0.30530220     0.86700
C930        C  0.29376557  0.81862328  0.28661229    -0.53500
C931        C  0.27091684  0.80220900  0.26474753     0.09700
C932        C  0.27656566  0.76224384  0.26376622     0.20600
C933        C  0.29511024  0.77063233  0.32335657    -0.54200
C934        C  0.27098305  0.75379930  0.30295419     0.09800
C935        C  0.33931559  0.77362410  0.27651003    -0.53800
C936        C  0.31768123  0.75595307  0.25363575     0.10300
H937        H  0.29304107  0.84630174  0.29049183     0.14900
H938        H  0.25845752  0.74815140  0.24570748     0.00600
H939        H  0.29348132  0.76928648  0.35070031     0.15200
H940        H  0.36785507  0.77405923  0.27343595     0.14900
C941        C  0.17462072  0.74113631  0.03749048     0.30300
C942        C  0.23408434  0.70453070  0.05355433     0.30300
C943        C  0.16846484  0.70618916  0.05224345    -0.05900
C944        C  0.19726516  0.73128056  0.00608544    -0.06700
C945        C  0.20255676  0.75895043  0.06041839    -0.06600
C946        C  0.19805270  0.68990662  0.06453025    -0.05900
C947        C  0.22828172  0.71195177  0.01276580    -0.06700
C948        C  0.23156961  0.73991714  0.06963346    -0.06600
C949        C  0.18527457  0.67600541  0.09419001    -0.32000
N950        N  0.14924615  0.67470495  0.09400585     0.14500
C951        C  0.13917231  0.69330827  0.06754328    -0.32000
H952        H  0.11226687  0.69788490  0.05961485     0.16500
C953        C  0.24418786  0.70447887  0.47837178    -0.31000
N954        N  0.22453043  0.72106998  0.45403290     0.13200
C955        C  0.19642454  0.73565215  0.47093511    -0.31000
C956        C  0.25740115  0.76202908  0.08005396    -0.31300
N957        N  0.24521635  0.79409165  0.07803519     0.13700
H958        H  0.28431833  0.75499995  0.08367583     0.16400
C959        C  0.21303176  0.79250212  0.06309500    -0.31300
H960        H  0.19906387  0.81372647  0.05271517     0.16400
H961        H  0.17527705  0.74918991  0.45867582     0.16400
H962        H  0.20092747  0.67143482  0.11629146     0.16400
H963        H  0.26753109  0.68932465  0.47218618     0.16400
C964        C  0.17840323  0.69811552  0.33312320     0.30300
C965        C  0.23838943  0.73425602  0.31853148     0.30300
C966        C  0.17259682  0.73280023  0.31809021    -0.05900
C967        C  0.20043393  0.70809510  0.36503861    -0.06700
C968        C  0.20656974  0.67978075  0.31076663    -0.06600
C969        C  0.20220692  0.74886724  0.30648260    -0.05800
C970        C  0.23162216  0.72719914  0.35927979    -0.06700
C971        C  0.23657200  0.69826766  0.30307007    -0.06600
C972        C  0.18915206  0.76383850  0.27720632    -0.32000
N973        N  0.15302340  0.76529198  0.27708730     0.14500
C974        C  0.14323066  0.74632292  0.30309083    -0.32000
H975        H  0.11641515  0.74216206  0.31102535     0.16500
C976        C  0.24592833  0.73202449  0.39340175    -0.31000
N977        N  0.22513533  0.71620967  0.41714674     0.13200
C978        C  0.19743985  0.70214272  0.39931735    -0.31000
C979        C  0.26335275  0.67509326  0.29765376    -0.31300
N980        N  0.25081459  0.64321880  0.29974431     0.13700
H981        H  0.29089946  0.68128671  0.29771234     0.16400
C982        C  0.21697618  0.64607049  0.31022880    -0.31300
H983        H  0.20191134  0.62562252  0.32034090     0.16400
H984        H  0.17566484  0.68951800  0.41103806     0.16400
H985        H  0.20462286  0.76908158  0.25544147     0.16400
H986        H  0.26932074  0.74670891  0.40031604     0.16400
O987        O  0.53318357  0.55593424  0.45867749    -0.75000
O988        O  0.07490267  0.01162372  0.47713928    -0.53900
C989        C  0.05546775  0.54618150  0.48313774     0.78700
O990        O  0.41613115  0.94827604  0.52152619    -0.59600
O991        O  0.37542764  0.95120001  0.47825017    -0.52700
C992        C  0.38474123  0.94568486  0.50896168     0.70700
O993        O  0.53908680  0.95290590  0.51542102    -0.74200
O994        O  0.08228118  0.94757051  0.48334389    -0.54800
C995        C  0.06405289  0.93516349  0.50673006     0.76700
O996        O  0.41345617  0.56212447  0.44900900    -0.59300
O997        O  0.37332259  0.52148324  0.45806610    -0.52500
C998        C  0.38497673  0.55229692  0.46266408     0.73300
Zr999      Zr  0.47180105  0.53975012  0.45930652     2.54700
O1000       O  0.47146763  0.56018946  0.02157308    -0.79900
O1001       O  0.47326825  0.59884880  0.44285422    -0.93300
Zr1002     Zr  0.47595373  0.94751500  0.49996177     2.64700
O1003       O  0.47571202  0.95043181  0.06140256    -0.98300
O1004       O  0.47207288  0.88848639  0.51612996    -0.80300
O1005       O  0.50982995  0.99304272  0.48098330    -0.83700
O1006       O  0.44248455  0.99436991  0.48062599    -2.18400
O1007       O  0.41666791  0.49009880  0.34086511    -0.67100
O1008       O  0.37297804  0.48584456  0.38030941    -0.51700
C1009       C  0.38402659  0.48887957  0.34966406     0.71700
O1010       O  0.53830938  0.88703806  0.41138973    -0.60000
O1011       O  0.07636332  0.92288261  0.40444346    -0.52000
C1012       C  0.06037881  0.89473227  0.39667611     0.73500
O1013       O  0.41755533  0.88275366  0.41675847    -0.71400
O1014       O  0.37950987  0.92381183  0.40237963    -0.50100
C1015       C  0.39036572  0.89257853  0.40040732     0.74900
O1016       O  0.53654414  0.48802767  0.35147075    -0.66700
O1017       O  0.08535725  0.99277872  0.39780407    -0.53900
C1018       C  0.06800335  0.50690511  0.37303590     0.73200
Zr1019     Zr  0.47416170  0.49583628  0.36740625     2.77500
O1020       O  0.48120779  0.49513960  0.30562844    -0.97500
O1021       O  0.46858760  0.55756155  0.36355219    -0.78300
Zr1022     Zr  0.47679041  0.90306650  0.40679345     2.70100
O1023       O  0.47150847  0.88197775  0.34730025    -0.79500
O1024       O  0.48236038  0.84192962  0.41428034    -0.98600
Zr1025     Zr  0.54738829  0.97055524  0.43552368     2.21500
Zr1026     Zr  0.40912274  0.97229461  0.43225145     2.11100
O1027       O  0.44466240  0.94916989  0.38563420    -2.47300
O1028       O  0.51148762  0.94901517  0.38807318    -0.79300
O1029       O  0.43761103  0.51819103  0.41211475    -0.71500
O1030       O  0.51045510  0.92426856  0.45428838    -2.32500
O1031       O  0.50796381  0.51787787  0.41405609    -2.28700
O1032       O  0.44164109  0.92518083  0.45304212    -0.73300
H1033       H  0.42340306  0.00229199  0.99806440     0.78700
H1034       H  0.52194009  0.90511675  0.46355698     0.79800
H1035       H  0.43080293  0.93899847  0.36701264     0.82000
H1036       H  0.52122302  0.53637947  0.40548170     0.79600
H1037       H  0.46504917  0.87523617  0.49495029     0.42700
H1038       H  0.47710588  0.83937693  0.43870766     0.41600
H1039       H  0.48179661  0.90025323  0.33405017     0.41300
H1040       H  0.47094573  0.47308874  0.29692375     0.39200
H1041       H  0.44392965  0.56117545  0.35573733     0.42400
H1042       H  0.49433376  0.60038515  0.42809079     0.37200
H1043       H  0.47801023  0.03466850  0.03451593     0.43300
H1044       H  0.47176485  0.97511170  0.06711322     0.39700
H1045       H  0.46455438  0.51279020  0.29791517     0.44600
H1046       H  0.50183988  0.60088182  0.93259831     0.43300
H1047       H  0.45463191  0.93899029  0.07029567     0.43500
H1048       H  0.46197120  0.83132633  0.40179513     0.43800
C1049       C  0.34923900  0.81049101  0.36389781    -0.21100
C1050       C  0.34431575  0.81739869  0.32919646    -0.09100
C1051       C  0.35883276  0.84806504  0.31800863     0.29800
C1052       C  0.37188289  0.87313812  0.34165361    -0.21100
C1053       C  0.37318367  0.86727943  0.37659112    -0.09100
C1054       C  0.36350930  0.83510622  0.38726450     0.29800
F1055       F  0.36717089  0.82774385  0.42051567    -0.19600
H1056       H  0.34209531  0.78619307  0.37348960     0.18100
H1057       H  0.38172630  0.89692923  0.33257812     0.18100
F1058       F  0.35892285  0.85449560  0.28432665    -0.19600
C1059       C  0.04638195  0.84756439  0.03245158    -0.21100
C1060       C  0.07313922  0.82911822  0.01393999    -0.09100
C1061       C  0.09140613  0.84619009  0.98884084     0.29800
C1062       C  0.08909623  0.87881773  0.48716054    -0.21100
C1063       C  0.06790074  0.89821738  0.51060703    -0.09100
C1064       C  0.04494382  0.88303343  0.03279454     0.29800
F1065       F  0.02404552  0.90022759  0.05600819    -0.19600
H1066       H  0.03126416  0.83586897  0.05195335     0.18100
H1067       H  0.10456037  0.89094687  0.46810699     0.18100
F1068       F  0.11516650  0.82974889  0.96788763    -0.19600
C1069       C  0.37096819  0.50117951  0.28996110    -0.21100
C1070       C  0.35825673  0.49431034  0.32252322    -0.09100
C1071       C  0.32246986  0.50040603  0.33011532     0.29800
C1072       C  0.30255411  0.52009554  0.30877626    -0.21100
C1073       C  0.31875267  0.53485871  0.28093025    -0.09100
C1074       C  0.35139802  0.52174443  0.26920362     0.29800
F1075       F  0.36504854  0.52949679  0.23868580    -0.19600
H1076       H  0.39753226  0.49390607  0.28203442     0.18100
H1077       H  0.27564710  0.52677801  0.31607747     0.18100
F1078       F  0.30787886  0.49085768  0.35965269    -0.19600
C1079       C  0.31515457  0.93070936  0.07760027    -0.21100
C1080       C  0.31920698  0.89503192  0.07877773    -0.09100
C1081       C  0.34228056  0.87745068  0.05543884     0.29800
C1082       C  0.35932562  0.89464377  0.03084711    -0.21100
C1083       C  0.35556715  0.92984758  0.02984530    -0.09100
C1084       C  0.33393812  0.94825548  0.05336236     0.29800
F1085       F  0.33149458  0.98282918  0.05307553    -0.19600
H1086       H  0.29790161  0.94499937  0.09511388     0.18100
H1087       H  0.38474530  0.88053128  0.51558358     0.18100
F1088       F  0.34757686  0.84307417  0.05573041    -0.19600
C1089       C  0.09601593  0.59919772  0.38544534    -0.21100
C1090       C  0.07567744  0.61442220  0.36031027    -0.09100
C1091       C  0.04813120  0.59475182  0.34426511     0.29800
C1092       C  0.04758967  0.55953934  0.34681138    -0.21100
C1093       C  0.07147062  0.54365934  0.36807702    -0.09100
C1094       C  0.09478177  0.56409894  0.38869226     0.29800
F1095       F  0.11738077  0.04833194  0.41122281    -0.19600
H1096       H  0.11665780  0.61319796  0.39925664     0.18100
H1097       H  0.02880776  0.54461478  0.33150184     0.18100
F1098       F  0.02598316  0.60788100  0.32094625    -0.19600
C1099       C  0.37175547  0.62426692  0.03486749    -0.21100
C1100       C  0.33513068  0.62216306  0.03957876    -0.09100
C1101       C  0.31544969  0.59944136  0.01724811     0.29800
C1102       C  0.33241485  0.57761920  0.99308902    -0.21100
C1103       C  0.36906929  0.57916634  0.98914313    -0.09100
C1104       C  0.38846017  0.60353788  0.00956960     0.29800
F1105       F  0.42390974  0.60692482  0.00582807    -0.19600
H1106       H  0.38773560  0.64209310  0.05020354     0.18100
H1107       H  0.31540749  0.55322806  0.48000199     0.18100
F1108       F  0.27954536  0.59807757  0.01903149    -0.19600
C1109       C  0.04846976  0.83371116  0.31977197    -0.21100
C1110       C  0.06168453  0.85339773  0.29370744    -0.09100
C1111       C  0.06570625  0.88881461  0.30091873     0.29800
C1112       C  0.06720003  0.90162538  0.33471729    -0.21100
C1113       C  0.06117051  0.88012043  0.36145125    -0.09100
C1114       C  0.04972697  0.84645658  0.35362663     0.29800
F1115       F  0.04185140  0.82523579  0.37867951    -0.19600
H1116       H  0.04312549  0.80671500  0.31469055     0.18100
H1117       H  0.07252520  0.92851941  0.33988971     0.18100
F1118       F  0.06767465  0.91117775  0.27586155    -0.19600
C1119       C  0.04216613  0.60786392  0.05650434    -0.21100
C1120       C  0.05580684  0.58827974  0.08263054    -0.09100
C1121       C  0.05917658  0.55274841  0.07595380     0.29800
C1122       C  0.06090686  0.53967538  0.04231935    -0.21100
C1123       C  0.05628592  0.56141887  0.01543872    -0.09100
C1124       C  0.04476696  0.59526490  0.02274325     0.29800
F1125       F  0.03505212  0.61589854  0.49948660    -0.19600
H1126       H  0.03686112  0.63494218  0.06140227     0.18100
H1127       H  0.06776956  0.00822607  0.04138132     0.18100
F1128       F  0.06129454  0.53078245  0.10139747    -0.19600
C1129       C  0.07764305  0.60793527  0.61051653     0.86700
C1130       C  0.10311882  0.63051436  0.59072685    -0.53500
C1131       C  0.12569389  0.65031081  0.60989115     0.09700
C1132       C  0.12090871  0.64494493  0.64854111     0.20600
C1133       C  0.10307671  0.58620527  0.63159750    -0.54200
C1134       C  0.12703397  0.60448475  0.65056859     0.09800
C1135       C  0.05804275  0.63277675  0.63586476    -0.53800
C1136       C  0.07947606  0.65366668  0.65557832     0.10300
H1137       H  0.10364061  0.63065603  0.56303456     0.14900
H1138       H  0.13940767  0.66088960  0.66467518     0.00600
H1139       H  0.10522268  0.55869410  0.62935309     0.15200
H1140       H  0.02954587  0.63639548  0.63497118     0.14900
C1141       C  0.06527974  0.75528844  0.70212456     0.30300
C1142       C  0.06537879  0.68886481  0.67278660     0.30300
C1143       C  0.08087993  0.72727794  0.72301532    -0.05900
C1144       C  0.02603130  0.73921547  0.69447161    -0.06700
C1145       C  0.08102953  0.74980661  0.66675499    -0.06600
C1146       C  0.08010357  0.69385667  0.70870860    -0.05900
C1147       C  0.02641225  0.70508990  0.67856900    -0.06700
C1148       C  0.08202933  0.71636080  0.65254374    -0.06600
C1149       C  0.07352869  0.67360563  0.73560156    -0.32000
N1150       N  0.07441913  0.69229220  0.76546673     0.14500
C1151       C  0.07710782  0.72513959  0.75775857    -0.32000
H1152       H  0.07249410  0.74649479  0.77587407     0.16500
C1153       C  0.49039536  0.69376277  0.67276373    -0.31000
N1154       N  0.46794076  0.71930956  0.68554830     0.13200
C1155       C  0.48962601  0.74538659  0.69863003    -0.31000
C1156       C  0.07877040  0.71843725  0.61773994    -0.31300
N1157       N  0.07620770  0.75119167  0.60993226     0.13700
H1158       H  0.07338978  0.69727648  0.59967790     0.16400
C1159       C  0.07528280  0.77011249  0.63962421    -0.31300
H1160       H  0.06547073  0.79609321  0.64142574     0.16400
H1161       H  0.47980412  0.76921392  0.71039427     0.16400
H1162       H  0.06362913  0.64776922  0.73350289     0.16400
H1163       H  0.48134460  0.66965064  0.66110339     0.16400
C1164       C  0.08519693  0.83557374  0.76531791     0.86700
C1165       C  0.11151282  0.81178084  0.78269708    -0.53500
C1166       C  0.13137033  0.79112591  0.76184992     0.09700
C1167       C  0.12369754  0.79732783  0.72364737     0.20600
C1168       C  0.10921299  0.85661015  0.74254663    -0.54200
C1169       C  0.13094866  0.83776387  0.72162641     0.09800
C1170       C  0.06255436  0.81161631  0.74104535    -0.53800
C1171       C  0.08147721  0.79016139  0.71922825     0.10300
H1172       H  0.11426058  0.81106665  0.81027245     0.14900
H1173       H  0.14043230  0.78083974  0.70625201     0.00600
H1174       H  0.11254082  0.88392209  0.74475634     0.15200
H1175       H  0.03415855  0.80892974  0.74408357     0.14900
C1176       C  0.15906030  0.58704212  0.66866951     0.30300
C1177       C  0.21789491  0.57441625  0.70759765     0.30300
C1178       C  0.16035914  0.60384957  0.70455889    -0.05900
C1179       C  0.16573951  0.54709404  0.67659008    -0.06700
C1180       C  0.19551125  0.59685363  0.65384227    -0.06600
C1181       C  0.18955981  0.59675369  0.72423708    -0.05900
C1182       C  0.19651042  0.54182389  0.69676988    -0.06700
C1183       C  0.22446617  0.59059842  0.67402171    -0.06600
C1184       C  0.17948872  0.60081721  0.75763905    -0.32000
N1185       N  0.14665992  0.61417828  0.75892517     0.14500
C1186       C  0.13402281  0.61410074  0.72671066    -0.32000
H1187       H  0.10684743  0.61696534  0.71969550     0.16500
C1188       C  0.19915366  0.50738201  0.70304361    -0.31000
N1189       N  0.17546737  0.98831018  0.68552861     0.13200
C1190       C  0.15170033  0.51328151  0.67105974    -0.31000
C1191       C  0.25405374  0.60277822  0.65883736    -0.31300
N1192       N  0.24464431  0.61861490  0.63045175     0.13700
H1193       H  0.28054098  0.59807487  0.66714586     0.16400
C1194       C  0.20945036  0.61121669  0.62522389    -0.31300
H1195       H  0.19509840  0.61419257  0.60175876     0.16400
H1196       H  0.13168278  0.00530838  0.65390161     0.16400
H1197       H  0.19364561  0.59103536  0.77890755     0.16400
H1198       H  0.22443473  0.99377529  0.71322020     0.16400
C1199       C  0.31551547  0.64095138  0.56640111     0.86700
C1200       C  0.29198662  0.61891947  0.58828336    -0.53500
C1201       C  0.26934224  0.63658928  0.60917284     0.09700
C1202       C  0.27476074  0.67632888  0.60827808     0.20600
C1203       C  0.29028648  0.66501650  0.54841067    -0.54200
C1204       C  0.26740845  0.68292449  0.56878103     0.09800
C1205       C  0.33690252  0.66391651  0.59342931    -0.53800
C1206       C  0.31653944  0.68242097  0.61701067     0.10300
H1207       H  0.29261326  0.59112565  0.58685777     0.14900
H1208       H  0.25709226  0.69113901  0.62618055     0.00600
H1209       H  0.28882513  0.66535821  0.52083898     0.15200
H1210       H  0.36550878  0.66314553  0.59576923     0.14900
C1211       C  0.09562115  0.63890889  0.83938379     0.86700
C1212       C  0.11379471  0.61489797  0.81201307    -0.53500
C1213       C  0.13103672  0.63129995  0.78819991     0.09700
C1214       C  0.13028916  0.66991048  0.79377566     0.20600
C1215       C  0.12611123  0.66170583  0.85491379    -0.54200
C1216       C  0.14473404  0.67772220  0.83058838     0.09800
C1217       C  0.07253723  0.66360213  0.81920205    -0.53800
C1218       C  0.09092335  0.67905393  0.79481943     0.10300
H1219       H  0.11209338  0.58714028  0.81080635     0.14900
H1220       H  0.14476764  0.68242884  0.77331459     0.00600
H1221       H  0.13267237  0.66411499  0.88179413     0.15200
H1222       H  0.04415158  0.66692392  0.82189157     0.14900
C1223       C  0.33168090  0.70138682  0.65228045     0.30300
C1224       C  0.33207444  0.73454027  0.71803604     0.30300
C1225       C  0.31571853  0.68259164  0.68139447    -0.05900
C1226       C  0.37082159  0.70898717  0.66856294    -0.06700
C1227       C  0.31641673  0.73750642  0.65606681    -0.06600
C1228       C  0.31635982  0.69875823  0.71424648    -0.05900
C1229       C  0.37087001  0.72662466  0.70201049    -0.06700
C1230       C  0.31599429  0.75361897  0.68898755    -0.06600
C1231       C  0.32156227  0.67280128  0.73616751    -0.32000
N1232       N  0.32083611  0.64198302  0.71902597     0.14500
C1233       C  0.31939536  0.64808169  0.68563060    -0.32000
H1234       H  0.32585457  0.62922530  0.66540265     0.16500
C1235       C  0.40701844  0.73228606  0.71066881    -0.31000
N1236       N  0.42917729  0.71869633  0.68540912     0.13200
C1237       C  0.40722404  0.70442157  0.66004768    -0.31000
C1238       C  0.32085664  0.78794142  0.68492257    -0.31300
N1239       N  0.32298180  0.79414385  0.65166014     0.13700
H1240       H  0.32849650  0.80625679  0.70524494     0.16400
C1241       C  0.32274434  0.76339283  0.63439695    -0.31300
H1242       H  0.33284079  0.75968812  0.60875395     0.16400
H1243       H  0.41681785  0.69202912  0.63650675     0.16400
H1244       H  0.33196706  0.67630319  0.76175503     0.16400
H1245       H  0.41634802  0.74520445  0.73410362     0.16400
C1246       C  0.30169244  0.87068147  0.60004598     0.86700
C1247       C  0.28077914  0.84567331  0.57595982    -0.53500
C1248       C  0.26386086  0.82142917  0.59225273     0.09700
C1249       C  0.26733359  0.82478094  0.63105298     0.20600
C1250       C  0.27336322  0.88629907  0.62518226    -0.54200
C1251       C  0.25496796  0.86184393  0.64139976     0.09800
C1252       C  0.32543616  0.84792557  0.62202752    -0.53800
C1253       C  0.30707241  0.82365071  0.63770473     0.10300
H1254       H  0.28113960  0.84576113  0.54824571     0.14900
H1255       H  0.25291081  0.80427672  0.64361329     0.00600
H1256       H  0.26772692  0.91327655  0.62894722     0.15200
H1257       H  0.35418388  0.84899970  0.62266264     0.14900
C1258       C  0.29920328  0.56318595  0.76720916     0.86700
C1259       C  0.28201406  0.58843689  0.79425118    -0.53500
C1260       C  0.26428043  0.61433999  0.78037916     0.09700
C1261       C  0.26515800  0.61309373  0.74142058     0.20600
C1262       C  0.26914240  0.55114164  0.74313906    -0.54200
C1263       C  0.25086222  0.57717308  0.72980228     0.09800
C1264       C  0.32297512  0.58682131  0.74656568    -0.53800
C1265       C  0.30462355  0.61281821  0.73300915     0.10300
H1266       H  0.28519938  0.58723680  0.82169344     0.14900
H1267       H  0.25071194  0.63487238  0.73064511     0.00600
H1268       H  0.26316196  0.52446486  0.73800384     0.15200
H1269       H  0.35165372  0.58562538  0.74559988     0.14900
C1270       C  0.16313277  0.85463641  0.70317434     0.30300
C1271       C  0.22229681  0.86612530  0.66430136     0.30300
C1272       C  0.16438502  0.83744577  0.66757952    -0.05900
C1273       C  0.17003600  0.89437024  0.69452751    -0.06700
C1274       C  0.19957304  0.84453604  0.71837041    -0.06600
C1275       C  0.19335903  0.84420800  0.64783558    -0.05900
C1276       C  0.20096366  0.89909725  0.67464912    -0.06700
C1277       C  0.22870041  0.85001832  0.69841073    -0.06600
C1278       C  0.18273134  0.83991456  0.61443201    -0.32000
N1279       N  0.15005870  0.82640892  0.61337682     0.14500
C1280       C  0.13790847  0.82696676  0.64561080    -0.32000
H1281       H  0.11087301  0.82450640  0.65269361     0.16500
C1282       C  0.20327087  0.93334213  0.66751660    -0.31000
N1283       N  0.17551002  0.95137322  0.68152854     0.13200
C1284       C  0.15539999  0.92817072  0.69857876    -0.31000
C1285       C  0.25769772  0.83581040  0.71368945    -0.31300
N1286       N  0.24765035  0.81977960  0.74177366     0.13700
H1287       H  0.28431744  0.83908772  0.70549561     0.16400
C1288       C  0.21276408  0.82872431  0.74671232    -0.31300
H1289       H  0.19796157  0.82534430  0.76965950     0.16400
H1290       H  0.13227986  0.93524690  0.71358086     0.16400
H1291       H  0.19657255  0.84923371  0.59293148     0.16400
H1292       H  0.22440156  0.94488290  0.65381033     0.16400
C1293       C  0.09485868  0.80310869  0.53471187     0.86700
C1294       C  0.11554085  0.82659055  0.56088812    -0.53500
C1295       C  0.13344734  0.80969673  0.58425482     0.09700
C1296       C  0.13097195  0.77106840  0.57914492     0.20600
C1297       C  0.12356639  0.77880926  0.51799956    -0.54200
C1298       C  0.14299076  0.76233455  0.54170677     0.09800
C1299       C  0.07220896  0.77981017  0.55637197    -0.53800
C1300       C  0.09142851  0.76378719  0.57998177     0.10300
H1301       H  0.11455552  0.85439075  0.56199927     0.14900
H1302       H  0.14600509  0.75791972  0.59909523     0.00600
H1303       H  0.12847992  0.77517607  0.49091790     0.15200
H1304       H  0.04351344  0.77838092  0.55541033     0.14900
C1305       C  0.32030627  0.79454120  0.80441049     0.86700
C1306       C  0.29408079  0.81728452  0.78527477    -0.53500
C1307       C  0.27168273  0.80054319  0.76335765     0.09700
C1308       C  0.27723484  0.76057421  0.76322605     0.20600
C1309       C  0.29549668  0.77025740  0.82288959    -0.54200
C1310       C  0.27146809  0.75311329  0.80276844     0.09800
C1311       C  0.33986478  0.77221891  0.77604500    -0.53800
C1312       C  0.31842322  0.75403376  0.75330616     0.10300
H1313       H  0.29266740  0.84494216  0.78898924     0.14900
H1314       H  0.25913390  0.74614865  0.74540562     0.00600
H1315       H  0.29378815  0.76970443  0.85033611     0.15200
H1316       H  0.36841576  0.77268930  0.77313622     0.14900
C1317       C  0.17596576  0.73980466  0.53683219     0.30300
C1318       C  0.23505020  0.70248731  0.55282480     0.30300
C1319       C  0.16936954  0.70511892  0.55181668    -0.05900
C1320       C  0.19817891  0.72923840  0.50527509    -0.06700
C1321       C  0.20442001  0.75746903  0.55933566    -0.06600
C1322       C  0.19871663  0.68862595  0.56423285    -0.05900
C1323       C  0.22894559  0.70943709  0.51190241    -0.06700
C1324       C  0.23345631  0.73821167  0.56823995    -0.06600
C1325       C  0.18550072  0.67500210  0.59387217    -0.32000
N1326       N  0.14940919  0.67378038  0.59329916     0.14500
C1327       C  0.13973273  0.69239571  0.56674418    -0.32000
H1328       H  0.11286852  0.69748334  0.55892640     0.16500
C1329       C  0.24399013  0.70771113  0.97940500    -0.31000
N1330       N  0.22424261  0.72415503  0.95505099     0.13200
C1331       C  0.19570923  0.73803632  0.97183852    -0.31000
C1332       C  0.26005771  0.76026882  0.57691026    -0.31300
N1333       N  0.24813224  0.79242484  0.57481226     0.13700
H1334       H  0.28714583  0.75312397  0.57955952     0.16400
C1335       C  0.21530226  0.79092598  0.56125767    -0.31300
H1336       H  0.20113966  0.81213424  0.55107245     0.16400
H1337       H  0.17432996  0.75116293  0.95949846     0.16400
H1338       H  0.20094931  0.67078671  0.61620698     0.16400
H1339       H  0.26766850  0.69305192  0.97328082     0.16400
C1340       C  0.17861841  0.69895309  0.83438976     0.30300
C1341       C  0.23878320  0.73442844  0.81900431     0.30300
C1342       C  0.17310090  0.73329148  0.81837870    -0.05900
C1343       C  0.20051138  0.70967334  0.86614476    -0.06700
C1344       C  0.20682078  0.67998319  0.81266363    -0.06600
C1345       C  0.20285602  0.74894644  0.80660459    -0.05800
C1346       C  0.23179770  0.72853174  0.86002548    -0.06700
C1347       C  0.23663235  0.69822550  0.80434331    -0.06600
C1348       C  0.19026536  0.76386332  0.77721775    -0.32000
N1349       N  0.15420628  0.76552587  0.77679075     0.14500
C1350       C  0.14400912  0.74690757  0.80298215    -0.32000
H1351       H  0.11715945  0.74340387  0.81111702     0.16500
C1352       C  0.24581789  0.73428889  0.89419442    -0.31000
N1353       N  0.22485666  0.71902366  0.91819739     0.13200
C1354       C  0.19728693  0.70454543  0.90054489    -0.31000
C1355       C  0.26299518  0.67506315  0.79744820    -0.31300
N1356       N  0.25043358  0.64324700  0.79989190     0.13700
H1357       H  0.29036704  0.68124247  0.79554017     0.16400
C1358       C  0.21704555  0.64617636  0.81179607    -0.31300
H1359       H  0.20203028  0.62566019  0.82185745     0.16400
H1360       H  0.17548811  0.69208726  0.91241728     0.16400
H1361       H  0.20596321  0.76890736  0.75558137     0.16400
H1362       H  0.26914415  0.74915802  0.90091755     0.16400
O1363       O  0.53685940  0.55437482  0.95901041    -0.75000
O1364       O  0.07361225  0.01097531  0.97626311    -0.53900
C1365       C  0.05746537  0.54708092  0.98026534     0.78700
O1366       O  0.41143857  0.95016378  0.02167474    -0.59600
O1367       O  0.37212863  0.94923947  0.97703834    -0.52700
C1368       C  0.38057432  0.94580532  0.00839685     0.70700
O1369       O  0.53316514  0.95046818  0.01750881    -0.74200
O1370       O  0.08106205  0.95035625  0.98479008    -0.54800
C1371       C  0.06260147  0.93747772  0.00768930     0.76700
O1372       O  0.41654245  0.56399804  0.95280372    -0.59300
O1373       O  0.37613441  0.52330310  0.96121265    -0.52500
C1374       C  0.38781185  0.55412481  0.96596028     0.73300
Zr1375     Zr  0.47479946  0.54055843  0.96161761     2.54700
O1376       O  0.46861253  0.56149475  0.51864023    -0.79900
O1377       O  0.48132714  0.60044962  0.94820495    -0.93300
Zr1378     Zr  0.47086542  0.94444619  0.99931555     2.64700
O1379       O  0.47670010  0.96303942  0.56108714    -0.98300
O1380       O  0.46369665  0.88352612  0.00697282    -0.80300
O1381       O  0.50578181  0.99004201  0.98182765    -0.83700
O1382       O  0.43851961  0.99233540  0.98030786    -2.18400
O1383       O  0.41843461  0.49163313  0.84296010    -0.67100
O1384       O  0.37553060  0.48979776  0.88352709    -0.51700
C1385       C  0.38596433  0.49188653  0.85259136     0.71700
O1386       O  0.53360929  0.88354411  0.91344399    -0.60000
O1387       O  0.07514835  0.91977821  0.90754582    -0.52000
C1388       C  0.05886260  0.89214459  0.89823667     0.73500
O1389       O  0.41358457  0.88351238  0.91857785    -0.71400
O1390       O  0.37529378  0.92313328  0.90214383    -0.50100
C1391       C  0.38663364  0.89215725  0.90121814     0.74900
O1392       O  0.54010703  0.48953852  0.85618698    -0.66700
O1393       O  0.08379784  0.98760580  0.89580149    -0.53900
C1394       C  0.06759554  0.50731876  0.87029044     0.73200
Zr1395     Zr  0.47637436  0.49613026  0.86912174     2.77500
O1396       O  0.48532689  0.48855887  0.80768193    -0.97500
O1397       O  0.46880976  0.55670559  0.85936492    -0.78300
Zr1398     Zr  0.47306642  0.90167503  0.90560864     2.70100
O1399       O  0.47037186  0.88422893  0.84498302    -0.79500
O1400       O  0.47198188  0.83943053  0.90538321    -0.98600
Zr1401     Zr  0.54394563  0.96808414  0.93682605     2.21500
Zr1402     Zr  0.40557819  0.97116809  0.93115696     2.11100
O1403       O  0.44156124  0.94832424  0.88465762    -2.47300
O1404       O  0.50905184  0.94739742  0.88829746    -0.79300
O1405       O  0.44047948  0.51944225  0.91422171    -0.71500
O1406       O  0.50628676  0.92180386  0.95419537    -2.32500
O1407       O  0.50963480  0.51757059  0.91610060    -2.28700
O1408       O  0.43722558  0.92336143  0.95153341    -0.73300
H1409       H  0.42737883  0.00369627  0.49867724     0.78700
H1410       H  0.51732137  0.90291316  0.96424040     0.79800
H1411       H  0.42772150  0.93857403  0.86580345     0.82000
H1412       H  0.52190283  0.53626789  0.90698383     0.79600
H1413       H  0.44243139  0.88212916  0.02147165     0.42700
H1414       H  0.46335474  0.83435541  0.92834679     0.41600
H1415       H  0.48692952  0.89970549  0.83399464     0.41300
H1416       H  0.47096346  0.46831135  0.80040207     0.39200
H1417       H  0.44649759  0.55796513  0.84606841     0.42400
H1418       H  0.46091745  0.60560634  0.93335743     0.37200
H1419       H  0.47807647  0.03897434  0.53374502     0.43300
H1420       H  0.47385771  0.94114790  0.57220914     0.39700
H1421       H  0.47281440  0.50811949  0.79800791     0.44600
H1422       H  0.47921827  0.61270619  0.46393974     0.43300
H1423       H  0.50120549  0.97034586  0.56674169     0.43500
H1424       H  0.45239717  0.83236477  0.88964160     0.43800
C1425       C  0.35080235  0.80857108  0.86246997    -0.21100
C1426       C  0.34430027  0.81675051  0.82833914    -0.09100
C1427       C  0.35623365  0.84883933  0.81826601     0.29800
C1428       C  0.36779719  0.87377307  0.84263158    -0.21100
C1429       C  0.37091666  0.86639547  0.87704265    -0.09100
C1430       C  0.36417103  0.83305743  0.88650769     0.29800
F1431       F  0.36973062  0.82440802  0.91915878    -0.19600
H1432       H  0.34543869  0.78335116  0.87096107     0.18100
H1433       H  0.37534785  0.89867769  0.83442236     0.18100
F1434       F  0.35541990  0.85668796  0.78497421    -0.19600
C1435       C  0.04717522  0.84573805  0.53261515    -0.21100
C1436       C  0.07340753  0.82687150  0.51373739    -0.09100
C1437       C  0.09130560  0.84349290  0.48816019     0.29800
C1438       C  0.08840116  0.88148700  0.98773832    -0.21100
C1439       C  0.06652000  0.90044686  0.01092656    -0.09100
C1440       C  0.04653271  0.88127415  0.53306773     0.29800
F1441       F  0.02679596  0.89899165  0.55696039    -0.19600
H1442       H  0.03226270  0.83426624  0.55241032     0.18100
H1443       H  0.10402248  0.89397935  0.96904953     0.18100
F1444       F  0.11401412  0.82646941  0.46654159    -0.19600
C1445       C  0.37085072  0.50222897  0.79273283    -0.21100
C1446       C  0.35943400  0.49719701  0.82612260    -0.09100
C1447       C  0.32376662  0.50314057  0.83456426     0.29800
C1448       C  0.30243939  0.52062802  0.81247333    -0.21100
C1449       C  0.31714917  0.53357675  0.78298798    -0.09100
C1450       C  0.34968553  0.52031275  0.77103258     0.29800
F1451       F  0.36185517  0.52603627  0.73938465    -0.19600
H1452       H  0.39734380  0.49512398  0.78443272     0.18100
H1453       H  0.27570867  0.52733054  0.82033557     0.18100
F1454       F  0.31053051  0.49552564  0.86533736    -0.19600
C1455       C  0.31720126  0.92832936  0.57573213    -0.21100
C1456       C  0.32324656  0.89295531  0.57805113    -0.09100
C1457       C  0.34779643  0.87613926  0.55568595     0.29800
C1458       C  0.36566140  0.89399768  0.53208826    -0.21100
C1459       C  0.36003151  0.92891811  0.53014819    -0.09100
C1460       C  0.33571539  0.94637979  0.55169212     0.29800
F1461       F  0.33016958  0.98047821  0.54958748    -0.19600
H1462       H  0.29808699  0.94198703  0.59177027     0.18100
H1463       H  0.37677939  0.88048784  0.01321477     0.18100
F1464       F  0.35367211  0.84185191  0.55574061    -0.19600
C1465       C  0.09677730  0.59903901  0.88563376    -0.21100
C1466       C  0.07581697  0.61555936  0.86179011    -0.09100
C1467       C  0.04776477  0.59663727  0.84570571     0.29800
C1468       C  0.04752307  0.56119354  0.84619271    -0.21100
C1469       C  0.07175431  0.54421146  0.86623827    -0.09100
C1470       C  0.09561474  0.56367882  0.88717154     0.29800
F1471       F  0.12117269  0.04018895  0.90568501    -0.19600
H1472       H  0.11791313  0.61239446  0.89938802     0.18100
H1473       H  0.02839644  0.54698030  0.83056351     0.18100
F1474       F  0.02457936  0.61104507  0.82416592    -0.19600
C1475       C  0.36982190  0.62348915  0.53073273    -0.21100
C1476       C  0.33433495  0.61845305  0.53912648    -0.09100
C1477       C  0.31454722  0.59383756  0.51899466     0.29800
C1478       C  0.33084587  0.57280728  0.49380660    -0.21100
C1479       C  0.36659336  0.57706891  0.48638153    -0.09100
C1480       C  0.38569105  0.60341172  0.50441159     0.29800
F1481       F  0.42017498  0.60928097  0.49749986    -0.19600
H1482       H  0.38534041  0.64328755  0.54393235     0.18100
H1483       H  0.31685087  0.55962880  0.97733208     0.18100
F1484       F  0.27918810  0.58993488  0.52365341    -0.19600
C1485       C  0.04963701  0.83416163  0.81861544    -0.21100
C1486       C  0.06484598  0.85451368  0.79400866    -0.09100
C1487       C  0.07101072  0.88927876  0.80328942     0.29800
C1488       C  0.07108704  0.90048231  0.83754312    -0.21100
C1489       C  0.06168080  0.87839717  0.86280602    -0.09100
C1490       C  0.04925109  0.84550702  0.85293964     0.29800
F1491       F  0.03867924  0.82364328  0.87650414    -0.19600
H1492       H  0.04330930  0.80760060  0.81211389     0.18100
H1493       H  0.07787832  0.92681911  0.84417697     0.18100
F1494       F  0.07636483  0.91282110  0.77990186    -0.19600
C1495       C  0.03965360  0.60811891  0.55865455    -0.21100
C1496       C  0.05348154  0.58896337  0.58498150    -0.09100
C1497       C  0.05583971  0.55330042  0.57908300     0.29800
C1498       C  0.05741667  0.53953712  0.54562965    -0.21100
C1499       C  0.05337022  0.56084759  0.51828428    -0.09100
C1500       C  0.04184959  0.59483537  0.52507410     0.29800
F1501       F  0.03827696  0.61679750  0.99746112    -0.19600
H1502       H  0.03465605  0.63530435  0.56309365     0.18100
H1503       H  0.06821473  0.00826869  0.54200653     0.18100
F1504       F  0.05758929  0.53200910  0.60513796    -0.19600
C1505       C  0.58165701  0.10305758  0.10994834     0.86700
C1506       C  0.60625043  0.12621502  0.08981289    -0.53500
C1507       C  0.62810927  0.14707511  0.10879409     0.09700
C1508       C  0.62339201  0.14226558  0.14752205     0.20600
C1509       C  0.60763906  0.08279144  0.13156379    -0.54200
C1510       C  0.63083292  0.10204107  0.15017720     0.09800
C1511       C  0.56099573  0.12794904  0.13476550    -0.53800
C1512       C  0.58163652  0.15009568  0.15415017     0.10300
H1513       H  0.60666381  0.12590961  0.06209010     0.14900
H1514       H  0.64139601  0.15894433  0.16345624     0.00600
H1515       H  0.61099394  0.05547603  0.12992666     0.15200
H1516       H  0.53237953  0.13058068  0.13374669     0.14900
C1517       C  0.56609236  0.25206773  0.20042247     0.30300
C1518       C  0.56659141  0.18537795  0.17113368     0.30300
C1519       C  0.58298381  0.22436134  0.22075686    -0.05900
C1520       C  0.52716535  0.23547609  0.19417757    -0.06700
C1521       C  0.58065424  0.24674112  0.16442561    -0.06600
C1522       C  0.58252829  0.19090756  0.20646042    -0.05900
C1523       C  0.52741929  0.20129490  0.17830121    -0.06700
C1524       C  0.58203618  0.21318829  0.15035499    -0.06600
C1525       C  0.57761582  0.17045175  0.23342506    -0.32000
N1526       N  0.57872876  0.18921620  0.26316589     0.14500
C1527       C  0.58023315  0.22211554  0.25555120    -0.32000
H1528       H  0.57505948  0.24326075  0.27375308     0.16500
C1529       C  0.99248058  0.19467624  0.17177837    -0.31000
N1530       N  0.97019848  0.22072698  0.18389410     0.13200
C1531       C  0.99215312  0.24669342  0.19672430    -0.31000
C1532       C  0.57847700  0.21494345  0.11553275    -0.31300
N1533       N  0.57506308  0.24761539  0.10744581     0.13700
H1534       H  0.57402196  0.19345498  0.09760091     0.16400
C1535       C  0.57376693  0.26664651  0.13712963    -0.31300
H1536       H  0.56395912  0.29265874  0.13880171     0.16400
H1537       H  0.98256190  0.27089240  0.20782530     0.16400
H1538       H  0.56801918  0.14453176  0.23156615     0.16400
H1539       H  0.98323002  0.17051637  0.16039154     0.16400
C1540       C  0.58377903  0.33292195  0.26367235     0.86700
C1541       C  0.61035913  0.30950514  0.28151030    -0.53500
C1542       C  0.63093916  0.28918868  0.26080074     0.09700
C1543       C  0.62333351  0.29513318  0.22252166     0.20600
C1544       C  0.60768681  0.35413130  0.24114252    -0.54200
C1545       C  0.62974058  0.33560341  0.22044242     0.09800
C1546       C  0.56180269  0.30841228  0.23934916    -0.53800
C1547       C  0.58136374  0.28721444  0.21774776     0.10300
H1548       H  0.61287715  0.30892848  0.30909817     0.14900
H1549       H  0.64048406  0.27891588  0.20527565     0.00600
H1550       H  0.61106881  0.38143871  0.24386904     0.15200
H1551       H  0.53343449  0.30527956  0.24216144     0.14900
C1552       C  0.66320846  0.08520889  0.16814823     0.30300
C1553       C  0.72202861  0.07275117  0.20698512     0.30300
C1554       C  0.66420633  0.10172940  0.20404370    -0.05900
C1555       C  0.66989308  0.04531223  0.17596740    -0.06700
C1556       C  0.69958452  0.09535339  0.15332902    -0.06600
C1557       C  0.69340902  0.09468272  0.22377640    -0.05900
C1558       C  0.70075036  0.03987857  0.19596899    -0.06700
C1559       C  0.72854324  0.08920080  0.17344286    -0.06600
C1560       C  0.68286277  0.09747311  0.25715384    -0.32000
N1561       N  0.64952077  0.10959311  0.25846795     0.14500
C1562       C  0.63732196  0.11023139  0.22617681    -0.32000
H1563       H  0.61008145  0.11217368  0.21898492     0.16500
C1564       C  0.70270921  0.00532920  0.20248293    -0.31000
N1565       N  0.67001685  0.48718892  0.18576432     0.13200
C1566       C  0.65492386  0.01188454  0.17104497    -0.31000
C1567       C  0.75798645  0.10226468  0.15851150    -0.31300
N1568       N  0.74841301  0.11851510  0.13036003     0.13700
H1569       H  0.78455582  0.09791919  0.16683926     0.16400
C1570       C  0.71337313  0.11043893  0.12500040    -0.31300
H1571       H  0.69908750  0.11311166  0.10147122     0.16400
H1572       H  0.62761661  0.50435755  0.15258989     0.16400
H1573       H  0.69729446  0.08788878  0.27838832     0.16400
H1574       H  0.71783021  0.49251475  0.21537915     0.16400
C1575       C  0.81872833  0.14240034  0.06595686     0.86700
C1576       C  0.79596154  0.11990388  0.08820265    -0.53500
C1577       C  0.77285956  0.13707258  0.10909512     0.09700
C1578       C  0.77707762  0.17698151  0.10764344     0.20600
C1579       C  0.79270031  0.16564776  0.04787743    -0.54200
C1580       C  0.76928007  0.18296709  0.06811876     0.09800
C1581       C  0.83956818  0.16620045  0.09250983    -0.53800
C1582       C  0.81879022  0.18442273  0.11585823     0.10300
H1583       H  0.79727390  0.09213056  0.08676477     0.14900
H1584       H  0.75908700  0.19150671  0.12547235     0.00600
H1585       H  0.79120011  0.16583672  0.02030720     0.15200
H1586       H  0.86818647  0.16627607  0.09477206     0.14900
C1587       C  0.59833328  0.13713784  0.33812641     0.86700
C1588       C  0.61616107  0.11210876  0.31139817    -0.53500
C1589       C  0.63410154  0.12758804  0.28735954     0.09700
C1590       C  0.63408806  0.16631182  0.29199873     0.20600
C1591       C  0.62927668  0.15954140  0.35333487    -0.54200
C1592       C  0.64828789  0.17481984  0.32874179     0.09800
C1593       C  0.57607426  0.16186613  0.31735135    -0.53800
C1594       C  0.59492592  0.17621763  0.29269016     0.10300
H1595       H  0.61371682  0.08442525  0.31077262     0.14900
H1596       H  0.64891283  0.17821402  0.27136090     0.00600
H1597       H  0.63545807  0.16264152  0.38024606     0.15200
H1598       H  0.54777555  0.16597811  0.31991777     0.14900
C1599       C  0.83380154  0.20381349  0.15075488     0.30300
C1600       C  0.83390262  0.23652791  0.21661145     0.30300
C1601       C  0.81816121  0.18467354  0.17972599    -0.05900
C1602       C  0.87289016  0.21159783  0.16686091    -0.06700
C1603       C  0.81810847  0.23980808  0.15474849    -0.06600
C1604       C  0.81845877  0.20062751  0.21259289    -0.05900
C1605       C  0.87291487  0.22900668  0.20040104    -0.06700
C1606       C  0.81738873  0.25557674  0.18774532    -0.06600
C1607       C  0.82302660  0.17448652  0.23442849    -0.32000
N1608       N  0.82255560  0.14376722  0.21701087     0.14500
C1609       C  0.82171930  0.15009642  0.18366736    -0.32000
H1610       H  0.82807491  0.13133891  0.16332655     0.16500
C1611       C  0.90924705  0.23421860  0.20903452    -0.31000
N1612       N  0.93137438  0.22064408  0.18365727     0.13200
C1613       C  0.90926386  0.20681589  0.15821308    -0.31000
C1614       C  0.82037779  0.29017476  0.18411524    -0.31300
N1615       N  0.82195665  0.29678136  0.15090776     0.13700
H1616       H  0.82687214  0.30865482  0.20465799     0.16400
C1617       C  0.82332907  0.26619056  0.13335029    -0.31300
H1618       H  0.83304402  0.26325601  0.10749936     0.16400
H1619       H  0.91872261  0.19443582  0.13460873     0.16400
H1620       H  0.83292751  0.17780324  0.26014991     0.16400
H1621       H  0.91871336  0.24666978  0.23264961     0.16400
C1622       C  0.79821593  0.37186004  0.09829644     0.86700
C1623       C  0.77784604  0.34582480  0.07476785    -0.53500
C1624       C  0.76168849  0.32149807  0.09171593     0.09700
C1625       C  0.76531376  0.32585825  0.13045113     0.20600
C1626       C  0.76952486  0.38738857  0.12305698    -0.54200
C1627       C  0.75203876  0.36284358  0.13996666     0.09800
C1628       C  0.82255638  0.35024797  0.12084235    -0.53800
C1629       C  0.80503115  0.32586767  0.13707322     0.10300
H1630       H  0.77805910  0.34536495  0.04703078     0.14900
H1631       H  0.75153269  0.30530495  0.14354673     0.00600
H1632       H  0.76291817  0.41424862  0.12602168     0.15200
H1633       H  0.85126418  0.35199720  0.12134146     0.14900
C1634       C  0.80504782  0.06382678  0.26499522     0.86700
C1635       C  0.78834606  0.08878677  0.29262080    -0.53500
C1636       C  0.76933077  0.11430496  0.27939473     0.09700
C1637       C  0.76857932  0.11287710  0.24042643     0.20600
C1638       C  0.77428597  0.05092761  0.24207732    -0.54200
C1639       C  0.75494925  0.07646140  0.22921857     0.09800
C1640       C  0.82725447  0.08804692  0.24339153    -0.53800
C1641       C  0.80766761  0.11374431  0.23070600     0.10300
H1642       H  0.79258139  0.08746139  0.31992915     0.14900
H1643       H  0.75309159  0.13426236  0.23013439     0.00600
H1644       H  0.76857649  0.02408561  0.23702286     0.15200
H1645       H  0.85587939  0.08790121  0.24159898     0.14900
C1646       C  0.66136561  0.35307452  0.20207110     0.30300
C1647       C  0.71957656  0.36656795  0.16296726     0.30300
C1648       C  0.66309829  0.33568847  0.16658345    -0.05900
C1649       C  0.66663055  0.39303207  0.19331159    -0.06700
C1650       C  0.69825664  0.34428143  0.21727184    -0.06600
C1651       C  0.69142595  0.34363639  0.14671468    -0.05900
C1652       C  0.69708339  0.39875249  0.17315100    -0.06700
C1653       C  0.72697233  0.35095227  0.19723797    -0.06600
C1654       C  0.68103350  0.33812874  0.11338531    -0.32000
N1655       N  0.64957295  0.32219971  0.11264765     0.14500
C1656       C  0.63746838  0.32268827  0.14491792    -0.32000
H1657       H  0.61084936  0.31832222  0.15220888     0.16500
C1658       C  0.69836945  0.43307021  0.16624391    -0.31000
N1659       N  0.67048677  0.45033554  0.18091047     0.13200
C1660       C  0.65127206  0.42648534  0.19801402    -0.31000
C1661       C  0.75670523  0.33778510  0.21238337    -0.31300
N1662       N  0.74758206  0.32107611  0.24038948     0.13700
H1663       H  0.78311063  0.34194010  0.20392151     0.16400
C1664       C  0.71235501  0.32871935  0.24544779    -0.31300
H1665       H  0.69785051  0.32464938  0.26841264     0.16400
H1666       H  0.62843546  0.43294005  0.21366228     0.16400
H1667       H  0.69414752  0.34789406  0.09167306     0.16400
H1668       H  0.71912998  0.44522994  0.15256585     0.16400
C1669       C  0.59526174  0.30072637  0.03315522     0.86700
C1670       C  0.61588084  0.32342302  0.05992741    -0.53500
C1671       C  0.63301326  0.30593541  0.08328874     0.09700
C1672       C  0.63030913  0.26737398  0.07741421     0.20600
C1673       C  0.62396286  0.27642515  0.01636179    -0.54200
C1674       C  0.64282547  0.25920502  0.03999544     0.09800
C1675       C  0.57200971  0.27719115  0.05415465    -0.53800
C1676       C  0.59070866  0.26038621  0.07767377     0.10300
H1677       H  0.61540228  0.35124600  0.06145285     0.14900
H1678       H  0.64500423  0.25383403  0.09730865     0.00600
H1679       H  0.62955494  0.27365686  0.98934796     0.15200
H1680       H  0.54330169  0.27624935  0.05291556     0.14900
C1681       C  0.82108478  0.29621111  0.30285823     0.86700
C1682       C  0.79492422  0.31887198  0.28341800    -0.53500
C1683       C  0.77242984  0.30199361  0.26155587     0.09700
C1684       C  0.77833873  0.26195877  0.26153870     0.20600
C1685       C  0.79619016  0.27189700  0.32124666    -0.54200
C1686       C  0.77251185  0.25432699  0.30108858     0.09800
C1687       C  0.84090920  0.27390883  0.27471785    -0.53800
C1688       C  0.81972734  0.25567897  0.25184451     0.10300
H1689       H  0.79347119  0.34652416  0.28710692     0.14900
H1690       H  0.76038602  0.24741593  0.24366044     0.00600
H1691       H  0.79443161  0.27132379  0.34870017     0.15200
H1692       H  0.86948727  0.27445209  0.27200563     0.14900
C1693       C  0.67632414  0.23726861  0.03533342     0.30300
C1694       C  0.73634449  0.20153547  0.05197179     0.30300
C1695       C  0.67058310  0.20242961  0.05043439    -0.05900
C1696       C  0.69902907  0.22709834  0.00400507    -0.06700
C1697       C  0.70417090  0.25571082  0.05796020    -0.06600
C1698       C  0.70033880  0.18675130  0.06316160    -0.05900
C1699       C  0.73028262  0.20811686  0.01093365    -0.06700
C1700       C  0.73351985  0.23723058  0.06729696    -0.06600
C1701       C  0.68733376  0.17311858  0.09287482    -0.32000
N1702       N  0.65128575  0.17089036  0.09203399     0.14500
C1703       C  0.64121856  0.18905600  0.06530088    -0.32000
H1704       H  0.61424363  0.19354979  0.05746191     0.16500
C1705       C  0.74532406  0.20771049  0.47809306    -0.31000
N1706       N  0.72521649  0.22408523  0.45387967     0.13200
C1707       C  0.69678494  0.23777968  0.47105412    -0.31000
C1708       C  0.75910318  0.25990584  0.07726936    -0.31300
N1709       N  0.74637610  0.29179288  0.07505106     0.13700
H1710       H  0.78613912  0.25333128  0.08101283     0.16400
C1711       C  0.71404079  0.28948330  0.06041975    -0.31300
H1712       H  0.69952029  0.31038692  0.05007529     0.16400
H1713       H  0.67518953  0.25081965  0.45896049     0.16400
H1714       H  0.70280020  0.16963814  0.11539267     0.16400
H1715       H  0.76903087  0.19317362  0.47175610     0.16400
C1716       C  0.68148919  0.19701709  0.33241883     0.30300
C1717       C  0.74049946  0.23444926  0.31736616     0.30300
C1718       C  0.67489621  0.23090775  0.31592380    -0.05900
C1719       C  0.70255701  0.20887010  0.36442096    -0.06700
C1720       C  0.71052420  0.17882301  0.31107076    -0.06600
C1721       C  0.70408495  0.24745401  0.30432825    -0.05800
C1722       C  0.73316282  0.22881440  0.35850079    -0.06700
C1723       C  0.74004058  0.19780800  0.30331408    -0.06600
C1724       C  0.69083611  0.26306146  0.27558786    -0.32000
N1725       N  0.65469697  0.26418902  0.27569109     0.14500
C1726       C  0.64525500  0.24454705  0.30140014    -0.32000
H1727       H  0.61864539  0.24050973  0.30994957     0.16500
C1728       C  0.74645766  0.23535367  0.39293523    -0.31000
N1729       N  0.72588105  0.21944505  0.41688205     0.13200
C1730       C  0.69910637  0.20388840  0.39892578    -0.31000
C1731       C  0.76721951  0.17503953  0.29758019    -0.31300
N1732       N  0.75514937  0.14285418  0.29937604     0.13700
H1733       H  0.79461660  0.18174155  0.29716238     0.16400
C1734       C  0.72130452  0.14519348  0.31004810    -0.31300
H1735       H  0.70636950  0.12437726  0.31955788     0.16400
H1736       H  0.67782868  0.19051634  0.41061560     0.16400
H1737       H  0.70625780  0.26900746  0.25404185     0.16400
H1738       H  0.76915098  0.25106683  0.39981235     0.16400
O1739       O  0.03917790  0.05220050  0.46093209    -0.75000
O1740       O  0.56950354  0.51463454  0.47274433    -0.53900
C1741       C  0.55940788  0.04221353  0.48063850     0.78700
O1742       O  0.91465635  0.44710453  0.52096169    -0.59600
O1743       O  0.87316192  0.45153239  0.47860064    -0.52700
C1744       C  0.88298284  0.44518715  0.50902601     0.70700
O1745       O  0.03717141  0.45403453  0.51722514    -0.74200
O1746       O  0.57873894  0.45000579  0.47838618    -0.54800
C1747       C  0.56119710  0.43800863  0.50246491     0.76700
O1748       O  0.91851980  0.06169272  0.45156490    -0.59300
O1749       O  0.87790860  0.02129879  0.45998312    -0.52500
C1750       C  0.88973882  0.05207123  0.46482211     0.73300
Zr1751     Zr  0.97686948  0.03884911  0.46165312     2.54700
O1752       O  0.97125847  0.05814673  0.02110637    -0.79900
O1753       O  0.98157998  0.09882998  0.44813905    -0.93300
Zr1754     Zr  0.97452177  0.44865633  0.50016820     2.64700
O1755       O  0.98167699  0.47339058  0.05984438    -0.98300
O1756       O  0.97263448  0.38908195  0.51491815    -0.80300
O1757       O  0.00748552  0.49514339  0.48223486    -0.83700
O1758       O  0.93992934  0.49496394  0.48108652    -2.18400
O1759       O  0.92374779  0.98859062  0.34202048    -0.67100
O1760       O  0.87987510  0.98955428  0.38181761    -0.51700
C1761       C  0.89114276  0.99070999  0.35100390     0.71700
O1762       O  0.03725544  0.38869690  0.41113839    -0.60000
O1763       O  0.57251233  0.42628855  0.40003271    -0.52000
C1764       C  0.55666572  0.39808678  0.39252268     0.73500
O1765       O  0.91842423  0.38204939  0.41585955    -0.71400
O1766       O  0.87903985  0.42273388  0.40314309    -0.50100
C1767       C  0.89033860  0.39159737  0.40075334     0.74900
O1768       O  0.04439750  0.98628504  0.35770592    -0.66700
O1769       O  0.57884722  0.49160310  0.39070703    -0.53900
C1770       C  0.56866011  0.00715214  0.37048204     0.73200
Zr1771     Zr  0.98083350  0.99367837  0.36958628     2.77500
O1772       O  0.98968366  0.98833307  0.30792781    -0.97500
O1773       O  0.97651321  0.05461988  0.36057254    -0.78300
Zr1774     Zr  0.97633569  0.40587763  0.40639519     2.70100
O1775       O  0.97307542  0.39145517  0.34516617    -0.79500
O1776       O  0.98121338  0.34390513  0.40772222    -0.98600
Zr1777     Zr  0.04585368  0.47353259  0.43726273     2.21500
Zr1778     Zr  0.90713346  0.47264918  0.43233856     2.11100
O1779       O  0.94340487  0.45161769  0.38563565    -2.47300
O1780       O  0.01063943  0.45264725  0.38917782    -0.79300
O1781       O  0.94378466  0.01729041  0.41360149    -0.71500
O1782       O  0.00972785  0.42640899  0.45459445    -2.32500
O1783       O  0.01306304  0.01589219  0.41702952    -2.28700
O1784       O  0.94073703  0.42623102  0.45289332    -0.73300
H1785       H  0.92469020  0.50655061  0.99771394     0.78700
H1786       H  0.02200890  0.40744596  0.46358388     0.79800
H1787       H  0.92967333  0.44141209  0.36692315     0.82000
H1788       H  0.02570828  0.03457247  0.40815378     0.79600
H1789       H  0.97780986  0.37556372  0.49340572     0.42700
H1790       H  0.97479022  0.33880366  0.43133965     0.41600
H1791       H  0.98682929  0.40952386  0.33461092     0.41300
H1792       H  0.97820026  0.96649355  0.30037212     0.39200
H1793       H  0.96446372  0.05599188  0.33819516     0.42400
H1794       H  0.96383205  0.10201381  0.42987760     0.37200
H1795       H  0.97123660  0.58788497  0.02099610     0.43300
H1796       H  0.96560672  0.49344769  0.06217741     0.39700
H1797       H  0.97453275  0.00625252  0.29843567     0.44600
H1798       H  0.00213190  0.09886255  0.93253671     0.43300
H1799       H  0.97042743  0.45586725  0.07339144     0.43500
H1800       H  0.96152066  0.33456123  0.39330106     0.43800
C1801       C  0.85218164  0.30907005  0.36089734    -0.21100
C1802       C  0.84510891  0.31813581  0.32711829    -0.09100
C1803       C  0.85713978  0.35039481  0.31768750     0.29800
C1804       C  0.86957349  0.37459650  0.34242105    -0.21100
C1805       C  0.87314319  0.36649725  0.37661940    -0.09100
C1806       C  0.86612566  0.33290596  0.38534837     0.29800
F1807       F  0.87202486  0.32330783  0.41763239    -0.19600
H1808       H  0.84683270  0.28361266  0.36878840     0.18100
H1809       H  0.87752463  0.39953131  0.33460942     0.18100
F1810       F  0.85608574  0.35900061  0.28463520    -0.19600
C1811       C  0.54829526  0.34429892  0.03175379    -0.21100
C1812       C  0.57447316  0.32556120  0.01268172    -0.09100
C1813       C  0.59252880  0.34252371  0.98738569     0.29800
C1814       C  0.58913175  0.38211714  0.48588520    -0.21100
C1815       C  0.56646128  0.40149645  0.50793104    -0.09100
C1816       C  0.54708621  0.37981810  0.03202543     0.29800
F1817       F  0.52710029  0.39724040  0.05593306    -0.19600
H1818       H  0.53362299  0.33272277  0.05164942     0.18100
H1819       H  0.60424641  0.39404681  0.46644376     0.18100
F1820       F  0.61555526  0.32578816  0.96588463    -0.19600
C1821       C  0.87871711  0.00525359  0.29165338    -0.21100
C1822       C  0.86577042  0.99746597  0.32384170    -0.09100
C1823       C  0.82951561  0.00151618  0.33064831     0.29800
C1824       C  0.80866018  0.01976647  0.30869710    -0.21100
C1825       C  0.82413893  0.03469611  0.28058129    -0.09100
C1826       C  0.85783033  0.02343024  0.26979777     0.29800
F1827       F  0.87099028  0.03028435  0.23882899    -0.19600
H1828       H  0.90585641  0.99970676  0.28432200     0.18100
H1829       H  0.78135185  0.02517562  0.31555676     0.18100
F1830       F  0.81492770  0.99050236  0.35960298    -0.19600
C1831       C  0.81492609  0.42962255  0.07474273    -0.21100
C1832       C  0.81975940  0.39401736  0.07617493    -0.09100
C1833       C  0.84474390  0.37715077  0.05431127     0.29800
C1834       C  0.86414331  0.39519423  0.03190898    -0.21100
C1835       C  0.85951544  0.43033101  0.03066862    -0.09100
C1836       C  0.83508642  0.44786153  0.05206056     0.29800
F1837       F  0.83127423  0.48229651  0.05134332    -0.19600
H1838       H  0.79591916  0.44340136  0.09081557     0.18100
H1839       H  0.88888282  0.38194624  0.52334026     0.18100
F1840       F  0.85016508  0.34277940  0.05427711    -0.19600
C1841       C  0.59663508  0.09938672  0.38623893    -0.21100
C1842       C  0.57721635  0.11517311  0.36085250    -0.09100
C1843       C  0.54934311  0.09620657  0.34451428     0.29800
C1844       C  0.54906345  0.06078267  0.34545093    -0.21100
C1845       C  0.57239602  0.04420550  0.36678318    -0.09100
C1846       C  0.59474498  0.06418113  0.38892395     0.29800
F1847       F  0.61858161  0.54268071  0.39971762    -0.19600
H1848       H  0.61699637  0.11310969  0.40076692     0.18100
H1849       H  0.53083286  0.04623428  0.32903336     0.18100
F1850       F  0.52685707  0.11040693  0.32216608    -0.19600
C1851       C  0.87380800  0.12449958  0.03116894    -0.21100
C1852       C  0.83795793  0.12018240  0.03872108    -0.09100
C1853       C  0.81812960  0.09610765  0.01805685     0.29800
C1854       C  0.83452478  0.07489773  0.99304531    -0.21100
C1855       C  0.87063280  0.07822664  0.98655743    -0.09100
C1856       C  0.88986191  0.10422733  0.00501978     0.29800
F1857       F  0.92463738  0.10946789  0.99876379    -0.19600
H1858       H  0.88951710  0.14378618  0.04491462     0.18100
H1859       H  0.81875091  0.05810973  0.47656079     0.18100
F1860       F  0.78260217  0.09289563  0.02220235    -0.19600
C1861       C  0.54912649  0.33390569  0.31780589    -0.21100
C1862       C  0.56270991  0.35276646  0.29132661    -0.09100
C1863       C  0.56542008  0.38857722  0.29714309     0.29800
C1864       C  0.56490523  0.40292476  0.33042479    -0.21100
C1865       C  0.55829533  0.38245186  0.35780787    -0.09100
C1866       C  0.54798431  0.34831647  0.35103694     0.29800
F1867       F  0.53915642  0.32822022  0.37672228    -0.19600
H1868       H  0.54465068  0.30664997  0.31374631     0.18100
H1869       H  0.56920141  0.43013152  0.33467849     0.18100
F1870       F  0.56784133  0.40992750  0.27124548    -0.19600
C1871       C  0.54253336  0.10053675  0.05895256    -0.21100
C1872       C  0.55891302  0.08218648  0.08450082    -0.09100
C1873       C  0.56416875  0.04669595  0.07793484     0.29800
C1874       C  0.56443578  0.03322141  0.04436184    -0.21100
C1875       C  0.55628905  0.05414932  0.01755553    -0.09100
C1876       C  0.54293953  0.08732011  0.02532176     0.29800
F1877       F  0.53963661  0.11203659  0.49547881    -0.19600
H1878       H  0.53588618  0.12734009  0.06377803     0.18100
H1879       H  0.56538831  0.50950110  0.03894498     0.18100
F1880       F  0.56891296  0.02495192  0.10329245    -0.19600
C1881       C  0.58054601  0.10610640  0.60769462     0.86700
C1882       C  0.60633122  0.12901426  0.58856618    -0.53500
C1883       C  0.62823079  0.14899636  0.60835724     0.09700
C1884       C  0.62267628  0.14326434  0.64678174     0.20600
C1885       C  0.60561305  0.08445759  0.62915890    -0.54200
C1886       C  0.62915251  0.10269203  0.64856565     0.09800
C1887       C  0.56013820  0.13082160  0.63261473    -0.53800
C1888       C  0.58096274  0.15185551  0.65282715     0.10300
H1889       H  0.60742136  0.12940311  0.56091163     0.14900
H1890       H  0.64073499  0.15922687  0.66338014     0.00600
H1891       H  0.60820594  0.05699159  0.62653047     0.15200
H1892       H  0.53163576  0.13430210  0.63109342     0.14900
C1893       C  0.56640078  0.25286512  0.70060156     0.30300
C1894       C  0.56627568  0.18694696  0.67012137     0.30300
C1895       C  0.58339994  0.22467242  0.72025581    -0.05900
C1896       C  0.52726070  0.23667770  0.69445332    -0.06700
C1897       C  0.58048621  0.24833782  0.66440247    -0.06600
C1898       C  0.58270184  0.19159506  0.70522513    -0.05900
C1899       C  0.52720845  0.20278830  0.67801509    -0.06700
C1900       C  0.58148473  0.21508874  0.64960082    -0.06600
C1901       C  0.57782126  0.17037996  0.73157014    -0.32000
N1902       N  0.57881067  0.18832407  0.76176816     0.14500
C1903       C  0.58062119  0.22147327  0.75496942    -0.32000
H1904       H  0.57535093  0.24218647  0.77362583     0.16500
C1905       C  0.99165836  0.19404702  0.67304343    -0.31000
N1906       N  0.96912747  0.21966477  0.68555917     0.13200
C1907       C  0.99076096  0.24568994  0.69886663    -0.31000
C1908       C  0.57709943  0.21770959  0.61494372    -0.31300
N1909       N  0.57385055  0.25066847  0.60764536     0.13700
H1910       H  0.57223920  0.19659622  0.59663310     0.16400
C1911       C  0.57321400  0.26897692  0.63776995    -0.31300
H1912       H  0.56396456  0.29516294  0.64022873     0.16400
H1913       H  0.98085877  0.26958765  0.71040068     0.16400
H1914       H  0.56785507  0.14462995  0.72890641     0.16400
H1915       H  0.98265823  0.16996454  0.66127100     0.16400
C1916       C  0.58405356  0.33198796  0.76508613     0.86700
C1917       C  0.61040130  0.30806216  0.78260920    -0.53500
C1918       C  0.63120270  0.28823567  0.76166760     0.09700
C1919       C  0.62394408  0.29508916  0.72357404     0.20600
C1920       C  0.60843860  0.35379779  0.74350977    -0.54200
C1921       C  0.63064561  0.33562327  0.72256736     0.09800
C1922       C  0.56227115  0.30832848  0.74001271    -0.53800
C1923       C  0.58193571  0.28752083  0.71833665     0.10300
H1924       H  0.61273485  0.30686502  0.81014934     0.14900
H1925       H  0.64113371  0.27914618  0.70611463     0.00600
H1926       H  0.61188407  0.38109658  0.74717546     0.15200
H1927       H  0.53384201  0.30529068  0.74240516     0.14900
C1928       C  0.66146092  0.08487229  0.66612833     0.30300
C1929       C  0.72054255  0.07157769  0.70455737     0.30300
C1930       C  0.66315769  0.10141349  0.70200382    -0.05900
C1931       C  0.66762822  0.04484270  0.67410297    -0.06700
C1932       C  0.69798562  0.09442650  0.65100173    -0.06600
C1933       C  0.69256648  0.09405047  0.72141936    -0.05900
C1934       C  0.69852410  0.03918729  0.69400959    -0.06700
C1935       C  0.72707001  0.08785672  0.67091396    -0.06600
C1936       C  0.68247993  0.09653021  0.75485892    -0.32000
N1937       N  0.64927347  0.10869955  0.75658955     0.14500
C1938       C  0.63657230  0.10958064  0.72454483    -0.32000
H1939       H  0.60915364  0.11103177  0.71785905     0.16500
C1940       C  0.70013605  0.00487050  0.70107093    -0.31000
N1941       N  0.67212976  0.48725175  0.68743917     0.13200
C1942       C  0.65255632  0.01136580  0.66941278    -0.31000
C1943       C  0.75643933  0.10130492  0.65620642    -0.31300
N1944       N  0.74681860  0.11804633  0.62834355     0.13700
H1945       H  0.78297128  0.09716484  0.66467251     0.16400
C1946       C  0.71167876  0.11021782  0.62299931    -0.31300
H1947       H  0.69708952  0.11400973  0.59984283     0.16400
H1948       H  0.62898844  0.50399741  0.65487980     0.16400
H1949       H  0.69695017  0.08638159  0.77579074     0.16400
H1950       H  0.72019644  0.49310820  0.71654430     0.16400
C1951       C  0.81795042  0.14339454  0.56519814     0.86700
C1952       C  0.79423508  0.12043176  0.58608689    -0.53500
C1953       C  0.77128716  0.13714958  0.60749323     0.09700
C1954       C  0.77631441  0.17711655  0.60760467     0.20600
C1955       C  0.79271047  0.16793565  0.54769265    -0.54200
C1956       C  0.76922285  0.18489485  0.56828151     0.09800
C1957       C  0.83877621  0.16580218  0.59293823    -0.53800
C1958       C  0.81798300  0.18345408  0.61662012     0.10300
H1959       H  0.79503299  0.09265897  0.58354060     0.14900
H1960       H  0.75848696  0.19136014  0.62579224     0.00600
H1961       H  0.79172210  0.16927937  0.52019466     0.15200
H1962       H  0.86734687  0.16552715  0.59559221     0.14900
C1963       C  0.59796014  0.13453613  0.83614638     0.86700
C1964       C  0.61643105  0.11015572  0.80943822    -0.53500
C1965       C  0.63418668  0.12618599  0.78577302     0.09700
C1966       C  0.63370767  0.16486237  0.79077205     0.20600
C1967       C  0.62836869  0.15731617  0.85192174    -0.54200
C1968       C  0.64747108  0.17303923  0.82769121     0.09800
C1969       C  0.57547117  0.15916262  0.81524417    -0.53800
C1970       C  0.59450645  0.17432430  0.79110723     0.10300
H1971       H  0.61437895  0.08241758  0.80838686     0.14900
H1972       H  0.64860676  0.17711949  0.77039775     0.00600
H1973       H  0.63431721  0.16014738  0.87890524     0.15200
H1974       H  0.54707277  0.16275456  0.81745084     0.14900
C1975       C  0.83284119  0.20180490  0.65204307     0.30300
C1976       C  0.83319877  0.23359654  0.71820952     0.30300
C1977       C  0.81745373  0.18198238  0.68072491    -0.05900
C1978       C  0.87197513  0.20968707  0.66814807    -0.06700
C1979       C  0.81670902  0.23747606  0.65661482    -0.06600
C1980       C  0.81791880  0.19743448  0.71386804    -0.05900
C1981       C  0.87198062  0.22656495  0.70189225    -0.06700
C1982       C  0.81644403  0.25294377  0.68969686    -0.06600
C1983       C  0.82314685  0.17075281  0.73508603    -0.32000
N1984       N  0.82281836  0.14021862  0.71717378     0.14500
C1985       C  0.82144148  0.14730401  0.68400900    -0.32000
H1986       H  0.82786057  0.12901357  0.66326528     0.16500
C1987       C  0.90812269  0.23199874  0.71074834    -0.31000
N1988       N  0.93034499  0.21911638  0.68520979     0.13200
C1989       C  0.90841221  0.20545827  0.65950360    -0.31000
C1990       C  0.81973578  0.28756259  0.68626712    -0.31300
N1991       N  0.82077726  0.29437420  0.65310309     0.13700
H1992       H  0.82685415  0.30580621  0.70681579     0.16400
C1993       C  0.82128555  0.26392993  0.63525947    -0.31300
H1994       H  0.83118068  0.26098252  0.60954722     0.16400
H1995       H  0.91803678  0.19358441  0.63573220     0.16400
H1996       H  0.83333243  0.17364717  0.76075452     0.16400
H1997       H  0.91741566  0.24411907  0.73458527     0.16400
C1998       C  0.80135845  0.37240846  0.60304423     0.86700
C1999       C  0.78151815  0.34781221  0.57768753    -0.53500
C2000       C  0.76368457  0.32333688  0.59269814     0.09700
C2001       C  0.76586207  0.32567603  0.63160612     0.20600
C2002       C  0.77214766  0.38753967  0.62736987    -0.54200
C2003       C  0.75337854  0.36260604  0.64254007     0.09800
C2004       C  0.82413105  0.34934188  0.62570665    -0.53800
C2005       C  0.80526588  0.32435921  0.63966312     0.10300
H2006       H  0.78315492  0.34843628  0.55005530     0.14900
H2007       H  0.75104778  0.30480941  0.64318570     0.00600
H2008       H  0.76687127  0.41455034  0.63185211     0.15200
H2009       H  0.85276274  0.35082042  0.62812947     0.14900
C2010       C  0.80199924  0.06006260  0.76421249     0.86700
C2011       C  0.78523954  0.08538599  0.79145927    -0.53500
C2012       C  0.76742354  0.11141757  0.77794772     0.09700
C2013       C  0.76768739  0.11021457  0.73896495     0.20600
C2014       C  0.77162348  0.04814261  0.74038433    -0.54200
C2015       C  0.75342513  0.07425102  0.72706317     0.09800
C2016       C  0.82554199  0.08384114  0.74324574    -0.53800
C2017       C  0.80700418  0.11022479  0.73022707     0.10300
H2018       H  0.78876148  0.08410347  0.81886001     0.14900
H2019       H  0.75305658  0.13203560  0.72848479     0.00600
H2020       H  0.76546633  0.02147883  0.73515482     0.15200
H2021       H  0.85419024  0.08249628  0.74189654     0.14900
C2022       C  0.66254665  0.35312195  0.70461815     0.30300
C2023       C  0.72099588  0.36619053  0.66566504     0.30300
C2024       C  0.66414401  0.33588991  0.66909647    -0.05900
C2025       C  0.66824767  0.39308120  0.69597220    -0.06700
C2026       C  0.69934201  0.34377451  0.71976785    -0.06600
C2027       C  0.69260161  0.34369618  0.64926505    -0.05900
C2028       C  0.69893754  0.39855685  0.67606742    -0.06700
C2029       C  0.72815782  0.35014865  0.69971998    -0.06600
C2030       C  0.68179614  0.33949121  0.61597781    -0.32000
N2031       N  0.64986434  0.32451901  0.61507302     0.14500
C2032       C  0.63801788  0.32417283  0.64732672    -0.32000
H2033       H  0.61129088  0.32011865  0.65461052     0.16500
C2034       C  0.70054576  0.43281030  0.66899286    -0.31000
N2035       N  0.67257610  0.45031510  0.68317968     0.13200
C2036       C  0.65293518  0.42663468  0.70014398    -0.31000
C2037       C  0.75765405  0.33627322  0.71455111    -0.31300
N2038       N  0.74828257  0.31939548  0.74236091     0.13700
H2039       H  0.78410974  0.34020854  0.70612151     0.16400
C2040       C  0.71322347  0.32760718  0.74768454    -0.31300
H2041       H  0.69868437  0.32334756  0.77059449     0.16400
H2042       H  0.62973635  0.43321657  0.71523322     0.16400
H2043       H  0.69491103  0.34977149  0.59453583     0.16400
H2044       H  0.72143036  0.44474675  0.65529928     0.16400
C2045       C  0.59592792  0.30531957  0.53504168     0.86700
C2046       C  0.61630054  0.32730959  0.56247417    -0.53500
C2047       C  0.63294595  0.30911485  0.58559863     0.09700
C2048       C  0.62990612  0.27069387  0.57905282     0.20600
C2049       C  0.62469647  0.28095222  0.51830952    -0.54200
C2050       C  0.64309326  0.26316323  0.54186386     0.09800
C2051       C  0.57202760  0.28164964  0.55516983    -0.53800
C2052       C  0.59015291  0.26406020  0.57850698     0.10300
H2053       H  0.61619224  0.35513683  0.56446298     0.14900
H2054       H  0.64414807  0.25670248  0.59891009     0.00600
H2055       H  0.63065240  0.27848109  0.49138669     0.15200
H2056       H  0.54331792  0.28117035  0.55353099     0.14900
C2057       C  0.82122208  0.29342219  0.80467385     0.86700
C2058       C  0.79540838  0.31634923  0.78532037    -0.53500
C2059       C  0.77287446  0.29984658  0.76329261     0.09700
C2060       C  0.77842333  0.25973888  0.76280840     0.20600
C2061       C  0.79614457  0.26882780  0.82256965    -0.54200
C2062       C  0.77254502  0.25159719  0.80196697     0.09800
C2063       C  0.84098526  0.27111514  0.77635393    -0.53800
C2064       C  0.81962210  0.25297737  0.75342030     0.10300
H2065       H  0.79451452  0.34403841  0.78905070     0.14900
H2066       H  0.76041569  0.24551319  0.74473488     0.00600
H2067       H  0.79409040  0.26764477  0.84987706     0.15200
H2068       H  0.86956680  0.27147032  0.77368694     0.14900
C2069       C  0.67664545  0.24115578  0.53724994     0.30300
C2070       C  0.73657462  0.20448428  0.55254116     0.30300
C2071       C  0.67080926  0.20627979  0.55204137    -0.05900
C2072       C  0.69890943  0.23122116  0.50544152    -0.06700
C2073       C  0.70487265  0.25902725  0.56002812    -0.06600
C2074       C  0.70050057  0.19000586  0.56397528    -0.05900
C2075       C  0.73009485  0.21189982  0.51173907    -0.06700
C2076       C  0.73458644  0.24014186  0.56825034    -0.06600
C2077       C  0.68767862  0.17505870  0.59308650    -0.32000
N2078       N  0.65158923  0.17334382  0.59258005     0.14500
C2079       C  0.64149632  0.19264610  0.56668998    -0.32000
H2080       H  0.61456088  0.19738561  0.55897777     0.16500
C2081       C  0.74574533  0.20328895  0.97745247    -0.31000
N2082       N  0.72572403  0.21921838  0.95290143     0.13200
C2083       C  0.69718494  0.23316822  0.96959909    -0.31000
C2084       C  0.76119547  0.26269250  0.57554125    -0.31300
N2085       N  0.74864341  0.29467597  0.57400443     0.13700
H2086       H  0.78862346  0.25608972  0.57652852     0.16400
C2087       C  0.71526809  0.29266090  0.56180115    -0.31300
H2088       H  0.70045897  0.31367410  0.55200749     0.16400
H2089       H  0.67568198  0.24602514  0.95715863     0.16400
H2090       H  0.70331748  0.17008856  0.61508745     0.16400
H2091       H  0.76948655  0.18866668  0.97144673     0.16400
C2092       C  0.68091351  0.19479418  0.83172593     0.30300
C2093       C  0.74038236  0.23159178  0.81730938     0.30300
C2094       C  0.67475777  0.22913375  0.81605577    -0.05900
C2095       C  0.70239423  0.20552855  0.86375861    -0.06700
C2096       C  0.70952807  0.17659283  0.80986456    -0.06600
C2097       C  0.70415014  0.24554096  0.80469876    -0.05800
C2098       C  0.73329885  0.22503294  0.85809888    -0.06700
C2099       C  0.73933047  0.19529180  0.80229641    -0.06600
C2100       C  0.69101644  0.26152640  0.77606592    -0.32000
N2101       N  0.65487806  0.26295816  0.77620779     0.14500
C2102       C  0.64526806  0.24308707  0.80164685    -0.32000
H2103       H  0.61860131  0.23894632  0.80998903     0.16500
C2104       C  0.74725511  0.23035449  0.89232246    -0.31000
N2105       N  0.72660701  0.21429923  0.91601538     0.13200
C2106       C  0.69928190  0.19969603  0.89804803    -0.31000
C2107       C  0.76616466  0.17216561  0.79642028    -0.31300
N2108       N  0.75357677  0.14014100  0.79787736     0.13700
H2109       H  0.79366916  0.17847694  0.79647231     0.16400
C2110       C  0.71982859  0.14284387  0.80865587    -0.31300
H2111       H  0.70461487  0.12214725  0.81807617     0.16400
H2112       H  0.67772772  0.18662722  0.90964357     0.16400
H2113       H  0.70644654  0.26757211  0.75453866     0.16400
H2114       H  0.77036424  0.24542018  0.89932856     0.16400
O2115       O  0.03821120  0.05199846  0.96035939    -0.75000
O2116       O  0.57289515  0.51371800  0.97444736    -0.53900
C2117       C  0.55657325  0.03965966  0.98230420     0.78700
O2118       O  0.91543763  0.45106727  0.02277498    -0.59600
O2119       O  0.87546769  0.45199072  0.97858044    -0.52700
C2120       C  0.88441696  0.44720468  0.00963539     0.70700
O2121       O  0.03799683  0.44974427  0.01816150    -0.74200
O2122       O  0.57926885  0.44608808  0.98003384    -0.54800
C2123       C  0.56278096  0.43380513  0.00473378     0.76700
O2124       O  0.91813940  0.06168784  0.95031494    -0.59300
O2125       O  0.87713809  0.02187907  0.95957216    -0.52500
C2126       C  0.88917733  0.05262262  0.96368058     0.73300
Zr2127     Zr  0.97612132  0.03821691  0.96133399     2.54700
O2128       O  0.97267391  0.05807402  0.52165052    -0.79900
O2129       O  0.98411796  0.09864986  0.95078740    -0.93300
Zr2130     Zr  0.97487945  0.45199418  0.00064108     2.64700
O2131       O  0.97569936  0.46396990  0.56136054    -0.98300
O2132       O  0.96643261  0.39470259  0.02018510    -0.80300
O2133       O  0.00819505  0.49765321  0.98150164    -0.83700
O2134       O  0.94026474  0.49745938  0.97998188    -2.18400
O2135       O  0.92062797  0.98835394  0.84283821    -0.67100
O2136       O  0.87699901  0.98746723  0.88278828    -0.51700
C2137       C  0.88793530  0.98922991  0.85195106     0.71700
O2138       O  0.03834654  0.39187345  0.91405129    -0.60000
O2139       O  0.57225818  0.42530481  0.90040132    -0.52000
C2140       C  0.55682909  0.39669259  0.89351717     0.73500
O2141       O  0.91810875  0.38253812  0.91447949    -0.71400
O2142       O  0.87926136  0.42390556  0.90194338    -0.50100
C2143       C  0.89013682  0.39260018  0.89951959     0.74900
O2144       O  0.04169200  0.98245520  0.85666280    -0.66700
O2145       O  0.58248948  0.49326052  0.89522882    -0.53900
C2146       C  0.56627272  0.00383366  0.87082856     0.73200
Zr2147     Zr  0.97870644  0.99216562  0.86958014     2.77500
O2148       O  0.98784391  0.98542975  0.80810213    -0.97500
O2149       O  0.97595228  0.05282960  0.85891329    -0.78300
Zr2150     Zr  0.97657737  0.40611388  0.90783404     2.70100
O2151       O  0.97382370  0.38361995  0.84870947    -0.79500
O2152       O  0.98424417  0.34574638  0.91835522    -0.98600
Zr2153     Zr  0.04579583  0.47421948  0.93652283     2.21500
Zr2154     Zr  0.90760515  0.47376823  0.93144042     2.11100
O2155       O  0.94427660  0.45159956  0.88562765    -2.47300
O2156       O  0.01049571  0.45249579  0.88871068    -0.79300
O2157       O  0.94237680  0.01665583  0.91371325    -0.71500
O2158       O  0.00906420  0.42810775  0.95550424    -2.32500
O2159       O  0.01207410  0.01480098  0.91638770    -2.28700
O2160       O  0.94114259  0.42814293  0.95371148    -0.73300
H2161       H  0.92442280  0.50369699  0.49907862     0.78700
H2162       H  0.01973642  0.40858939  0.96538134     0.79800
H2163       H  0.93092601  0.44101437  0.86688732     0.82000
H2164       H  0.02557474  0.03295333  0.90725820     0.79600
H2165       H  0.97210170  0.37915395  0.00016171     0.42700
H2166       H  0.98104359  0.34455167  0.94329980     0.41600
H2167       H  0.95912276  0.36278832  0.84935851     0.41300
H2168       H  0.97869075  0.96233263  0.80146737     0.39200
H2169       H  0.95038925  0.05863370  0.85964232     0.42400
H2170       H  0.96217481  0.10625765  0.93950043     0.37200
H2171       H  0.97086702  0.58103157  0.52619131     0.43300
H2172       H  0.99704466  0.47830280  0.56518175     0.39700
H2173       H  0.97080303  0.00139587  0.79805093     0.44600
H2174       H  0.00450609  0.10063943  0.43625287     0.43300
H2175       H  0.95576045  0.48025410  0.56516432     0.43500
H2176       H  0.96337648  0.33387803  0.90800596     0.43800
C2177       C  0.84845816  0.31008817  0.86406214    -0.21100
C2178       C  0.84485397  0.31598160  0.82893891    -0.09100
C2179       C  0.85945648  0.34654858  0.81759535     0.29800
C2180       C  0.87176236  0.37216998  0.84108035    -0.21100
C2181       C  0.87213839  0.36720438  0.87621923    -0.09100
C2182       C  0.86190945  0.33531880  0.88734412     0.29800
F2183       F  0.86453335  0.32868204  0.92087106    -0.19600
H2184       H  0.84107647  0.28605593  0.87407631     0.18100
H2185       H  0.88199021  0.39567151  0.83169553     0.18100
F2186       F  0.86034777  0.35237698  0.78379436    -0.19600
C2187       C  0.54920664  0.34953561  0.53331824    -0.21100
C2188       C  0.57576389  0.33076074  0.51476064    -0.09100
C2189       C  0.59364739  0.34721552  0.48901848     0.29800
C2190       C  0.58959654  0.37783990  0.98610223    -0.21100
C2191       C  0.56795020  0.39704227  0.00929610    -0.09100
C2192       C  0.54598768  0.38474921  0.53125695     0.29800
F2193       F  0.52453134  0.40253635  0.55358094    -0.19600
H2194       H  0.53514717  0.33846880  0.55392285     0.18100
H2195       H  0.60482789  0.39013676  0.96698876     0.18100
F2196       F  0.61806372  0.33070927  0.46890000    -0.19600
C2197       C  0.87368691  0.99964956  0.79164826    -0.21100
C2198       C  0.86178584  0.99486704  0.82496757    -0.09100
C2199       C  0.82589462  0.00075919  0.83268135     0.29800
C2200       C  0.80474050  0.01756646  0.80980528    -0.21100
C2201       C  0.81981470  0.03034919  0.78035300    -0.09100
C2202       C  0.85270199  0.01725551  0.76924802     0.29800
F2203       F  0.86518790  0.02244024  0.73760585    -0.19600
H2204       H  0.90032189  0.99252779  0.78384071     0.18100
H2205       H  0.77780878  0.02412776  0.81712150     0.18100
F2206       F  0.81213535  0.99362638  0.86338968    -0.19600
C2207       C  0.81364201  0.42858584  0.57479405    -0.21100
C2208       C  0.82352299  0.39486852  0.58183540    -0.09100
C2209       C  0.85063716  0.37838246  0.56227890     0.29800
C2210       C  0.86783444  0.39519292  0.53754234    -0.21100
C2211       C  0.85870759  0.42865244  0.53107708    -0.09100
C2212       C  0.83134052  0.44555822  0.54932024     0.29800
F2213       F  0.82199535  0.47803067  0.54262141    -0.19600
H2214       H  0.79174714  0.44135734  0.58787961     0.18100
H2215       H  0.88351149  0.38168617  0.01577475     0.18100
F2216       F  0.85907098  0.34489358  0.56531198    -0.19600
C2217       C  0.59725915  0.09547990  0.88341394    -0.21100
C2218       C  0.57747282  0.11144957  0.85832518    -0.09100
C2219       C  0.54964854  0.09245193  0.84193162     0.29800
C2220       C  0.54843036  0.05712839  0.84390930    -0.21100
C2221       C  0.57117682  0.04055867  0.86581010    -0.09100
C2222       C  0.59447166  0.06043855  0.88698081     0.29800
F2223       F  0.62070698  0.54588755  0.90578798    -0.19600
H2224       H  0.61828234  0.10889682  0.89727994     0.18100
H2225       H  0.52977462  0.04266576  0.82791383     0.18100
F2226       F  0.52759897  0.10648801  0.81909615    -0.19600
C2227       C  0.87413802  0.12326404  0.53303236    -0.21100
C2228       C  0.83749409  0.12139989  0.53791148    -0.09100
C2229       C  0.81766519  0.09867139  0.51575342     0.29800
C2230       C  0.83447725  0.07620335  0.49202671    -0.21100
C2231       C  0.87115418  0.07738580  0.48798831    -0.09100
C2232       C  0.89068594  0.10206679  0.50793498     0.29800
F2233       F  0.92611066  0.10534661  0.50386770    -0.19600
H2234       H  0.89021788  0.14124984  0.54808871     0.18100
H2235       H  0.81894462  0.05572632  0.97881862     0.18100
F2236       F  0.78173504  0.09786062  0.51740228    -0.19600
C2237       C  0.54974151  0.33179553  0.81935388    -0.21100
C2238       C  0.56231525  0.35098998  0.79265299    -0.09100
C2239       C  0.56347000  0.38682442  0.79805437     0.29800
C2240       C  0.56285586  0.40138195  0.83123273    -0.21100
C2241       C  0.55821676  0.38076761  0.85892145    -0.09100
C2242       C  0.54924089  0.34619044  0.85260544     0.29800
F2243       F  0.54251018  0.32576451  0.87863281    -0.19600
H2244       H  0.54611974  0.30439783  0.81543129     0.18100
H2245       H  0.56577960  0.42879524  0.83521209     0.18100
F2246       F  0.56494444  0.40781839  0.77177447    -0.19600
C2247       C  0.54398094  0.10549553  0.55485787    -0.21100
C2248       C  0.55722594  0.08674232  0.58170834    -0.09100
C2249       C  0.55947882  0.05096409  0.57646059     0.29800
C2250       C  0.56138952  0.03660572  0.54326180    -0.21100
C2251       C  0.55747518  0.05739319  0.51551235    -0.09100
C2252       C  0.54610875  0.09149834  0.52157126     0.29800
F2253       F  0.53261011  0.10793226  0.00042760    -0.19600
H2254       H  0.53915621  0.13276223  0.55873175     0.18100
H2255       H  0.56451027  0.51002835  0.53769695     0.18100
F2256       F  0.56051696  0.03009091  0.60290109    -0.19600
C2257       C  0.57715488  0.60566755  0.10807483     0.86700
C2258       C  0.60271181  0.62838121  0.08848353    -0.53500
C2259       C  0.62477061  0.64850580  0.10785926     0.09700
C2260       C  0.61967545  0.64314263  0.14644187     0.20600
C2261       C  0.60238796  0.58422668  0.12952227    -0.54200
C2262       C  0.62609329  0.60258337  0.14851828     0.09800
C2263       C  0.55701143  0.63063497  0.13305052    -0.53800
C2264       C  0.57805690  0.65187291  0.15290678     0.10300
H2265       H  0.60360409  0.62848466  0.06080103     0.14900
H2266       H  0.63794963  0.65921117  0.16270392     0.00600
H2267       H  0.60478557  0.55674786  0.12743656     0.15200
H2268       H  0.52849894  0.63408596  0.13178410     0.14900
C2269       C  0.56364465  0.75356367  0.19943466     0.30300
C2270       C  0.56357412  0.68724536  0.16994764     0.30300
C2271       C  0.57952357  0.72559997  0.22019501    -0.05900
C2272       C  0.52456740  0.73775114  0.19223652    -0.06700
C2273       C  0.57905918  0.74831200  0.16391068    -0.06600
C2274       C  0.57855672  0.69220909  0.20583174    -0.05900
C2275       C  0.52455663  0.70370160  0.17617881    -0.06700
C2276       C  0.58003016  0.71490646  0.14956867    -0.06600
C2277       C  0.57196850  0.67193241  0.23273501    -0.32000
N2278       N  0.57286452  0.69054583  0.26264620     0.14500
C2279       C  0.57578391  0.72338887  0.25496363    -0.32000
H2280       H  0.57092311  0.74471504  0.27303668     0.16500
C2281       C  0.98896020  0.69479950  0.17187334    -0.31000
N2282       N  0.96620487  0.72034355  0.18417130     0.13200
C2283       C  0.98777292  0.74642510  0.19763358    -0.31000
C2284       C  0.57642079  0.71723948  0.11476494    -0.31300
N2285       N  0.57349611  0.75010089  0.10707062     0.13700
H2286       H  0.57098801  0.69605852  0.09672899     0.16400
C2287       C  0.57279588  0.76874975  0.13694809    -0.31300
H2288       H  0.56254245  0.79454532  0.13907317     0.16400
H2289       H  0.97774108  0.77028440  0.20913312     0.16400
H2290       H  0.56206237  0.64609317  0.23059693     0.16400
H2291       H  0.98014745  0.67066670  0.16006103     0.16400
C2292       C  0.58105890  0.83455183  0.26172550     0.86700
C2293       C  0.60723070  0.81101569  0.28018942    -0.53500
C2294       C  0.62781688  0.79018191  0.26000846     0.09700
C2295       C  0.62090010  0.79605260  0.22159431     0.20600
C2296       C  0.60535111  0.85536262  0.23933296    -0.54200
C2297       C  0.62762720  0.83647835  0.21930061     0.09800
C2298       C  0.55920854  0.81011722  0.23739854    -0.53800
C2299       C  0.57895022  0.78853362  0.21648137     0.10300
H2300       H  0.60940750  0.81068657  0.30781198     0.14900
H2301       H  0.63810327  0.77963537  0.20457877     0.00600
H2302       H  0.60858312  0.88270997  0.24154189     0.15200
H2303       H  0.53074613  0.80732225  0.23974064     0.14900
C2304       C  0.65803371  0.58479203  0.16656829     0.30300
C2305       C  0.71643389  0.57161242  0.20601461     0.30300
C2306       C  0.65917191  0.60137966  0.20239024    -0.05900
C2307       C  0.66440246  0.54469311  0.17443455    -0.06700
C2308       C  0.69463533  0.59446623  0.15211669    -0.06600
C2309       C  0.68791328  0.59381314  0.22239588    -0.05900
C2310       C  0.69494329  0.53914598  0.19491316    -0.06700
C2311       C  0.72343305  0.58794005  0.17242322    -0.06600
C2312       C  0.67739705  0.59798601  0.25563191    -0.32000
N2313       N  0.64496777  0.61223897  0.25634064     0.14500
C2314       C  0.63282160  0.61243490  0.22402689    -0.32000
H2315       H  0.60591196  0.61617704  0.21659652     0.16500
C2316       C  0.69716118  0.50470396  0.20129258    -0.31000
N2317       N  0.67480160  0.98802652  0.18780743     0.13200
C2318       C  0.65015956  0.51097643  0.16873980    -0.31000
C2319       C  0.75304012  0.60075601  0.15761096    -0.31300
N2320       N  0.74367306  0.61726288  0.12950298     0.13700
H2321       H  0.77949748  0.59607372  0.16603120     0.16400
C2322       C  0.70857280  0.60967500  0.12401132    -0.31300
H2323       H  0.69425920  0.61300766  0.10060652     0.16400
H2324       H  0.63172521  0.00544744  0.15575000     0.16400
H2325       H  0.69111292  0.58822829  0.27719657     0.16400
H2326       H  0.72351109  0.99309334  0.21640287     0.16400
C2327       C  0.81419547  0.64078569  0.06532184     0.86700
C2328       C  0.79106032  0.61842013  0.08730769    -0.53500
C2329       C  0.76819103  0.63572846  0.10828697     0.09700
C2330       C  0.77302052  0.67563351  0.10726290     0.20600
C2331       C  0.78855352  0.66452185  0.04734461    -0.54200
C2332       C  0.76564115  0.68242567  0.06771646     0.09800
C2333       C  0.83528109  0.66399564  0.09231735    -0.53800
C2334       C  0.81471737  0.68214871  0.11595955     0.10300
H2335       H  0.79222713  0.59064637  0.08601306     0.14900
H2336       H  0.75524277  0.69025696  0.12521171     0.00600
H2337       H  0.78706989  0.66488645  0.01976328     0.15200
H2338       H  0.86390339  0.66352996  0.09461354     0.14900
C2339       C  0.59355802  0.63642432  0.33634954     0.86700
C2340       C  0.61163835  0.61272048  0.30880512    -0.53500
C2341       C  0.62906255  0.62931095  0.28536091     0.09700
C2342       C  0.62836266  0.66792597  0.29115212     0.20600
C2343       C  0.62404972  0.65907651  0.35215003    -0.54200
C2344       C  0.64253588  0.67556250  0.32805407     0.09800
C2345       C  0.57054849  0.66141236  0.31627813    -0.53800
C2346       C  0.58908146  0.67711025  0.29207907     0.10300
H2347       H  0.60985691  0.58495413  0.30723868     0.14900
H2348       H  0.64295026  0.68061865  0.27086531     0.00600
H2349       H  0.63064680  0.66110297  0.37905406     0.15200
H2350       H  0.54220082  0.66490660  0.31891026     0.14900
C2351       C  0.82969691  0.70098139  0.15127660     0.30300
C2352       C  0.82996524  0.73381830  0.21725760     0.30300
C2353       C  0.81416461  0.68179190  0.18037195    -0.05900
C2354       C  0.86885309  0.70917607  0.16730702    -0.06700
C2355       C  0.81356973  0.73669657  0.15544593    -0.06600
C2356       C  0.81451878  0.69784423  0.21325264    -0.05900
C2357       C  0.86884012  0.72651049  0.20088862    -0.06700
C2358       C  0.81326406  0.75264781  0.18839937    -0.06600
C2359       C  0.81855553  0.67175832  0.23521183    -0.32000
N2360       N  0.81770430  0.64098195  0.21790736     0.14500
C2361       C  0.81724379  0.64719979  0.18447813    -0.32000
H2362       H  0.82369237  0.62836242  0.16424652     0.16500
C2363       C  0.90505278  0.73244136  0.20940523    -0.31000
N2364       N  0.92734811  0.71947704  0.18391586     0.13200
C2365       C  0.90534838  0.70527106  0.15849078    -0.31000
C2366       C  0.81659533  0.78712788  0.18451465    -0.31300
N2367       N  0.81768344  0.79341013  0.15124072     0.13700
H2368       H  0.82376242  0.80563095  0.20482512     0.16400
C2369       C  0.81819799  0.76280725  0.13375805    -0.31300
H2370       H  0.82822703  0.75955569  0.10811446     0.16400
H2371       H  0.91492999  0.69328367  0.13474826     0.16400
H2372       H  0.82807568  0.67505138  0.26107355     0.16400
H2373       H  0.91433193  0.74506426  0.23300241     0.16400
C2374       C  0.79863555  0.87062766  0.10024554     0.86700
C2375       C  0.77851024  0.84598560  0.07506271    -0.53500
C2376       C  0.76086203  0.82156481  0.09041613     0.09700
C2377       C  0.76288483  0.82440741  0.12925287     0.20600
C2378       C  0.76947938  0.88606944  0.12438947    -0.54200
C2379       C  0.75052756  0.86142002  0.13961923     0.09800
C2380       C  0.82133420  0.84761063  0.12280964    -0.53800
C2381       C  0.80229719  0.82313596  0.13735183     0.10300
H2382       H  0.77998012  0.84640204  0.04741397     0.14900
H2383       H  0.74787927  0.80378445  0.14103893     0.00600
H2384       H  0.76392050  0.91302189  0.12838509     0.15200
H2385       H  0.85003523  0.84865755  0.12459393     0.14900
C2386       C  0.79771030  0.56164843  0.26622246     0.86700
C2387       C  0.78040769  0.58684563  0.29327430    -0.53500
C2388       C  0.76217129  0.61247113  0.27942455     0.09700
C2389       C  0.76270836  0.61098974  0.24041915     0.20600
C2390       C  0.76754428  0.54901586  0.24243160    -0.54200
C2391       C  0.74898459  0.57476149  0.22884994     0.09800
C2392       C  0.82088943  0.58559579  0.24523121    -0.53800
C2393       C  0.80205440  0.61135673  0.23173001     0.10300
H2394       H  0.78398422  0.58591971  0.32070131     0.14900
H2395       H  0.74785281  0.63252461  0.22965868     0.00600
H2396       H  0.76173609  0.52222615  0.23742262     0.15200
H2397       H  0.84957206  0.58478577  0.24408775     0.14900
C2398       C  0.65940306  0.85361134  0.20110088     0.30300
C2399       C  0.71809309  0.86547783  0.16236002     0.30300
C2400       C  0.65981596  0.83768060  0.16496511    -0.05900
C2401       C  0.66685199  0.89366770  0.19391993    -0.06700
C2402       C  0.69569444  0.84238136  0.21565478    -0.06600
C2403       C  0.68877405  0.84451498  0.14535582    -0.05900
C2404       C  0.69759268  0.89846601  0.17387681    -0.06700
C2405       C  0.72463099  0.84825631  0.19580818    -0.06600
C2406       C  0.67826523  0.84076471  0.11190763    -0.32000
N2407       N  0.64537447  0.82776574  0.11061259     0.14500
C2408       C  0.63311904  0.82802755  0.14283473    -0.32000
H2409       H  0.60601701  0.82560805  0.14983307     0.16500
C2410       C  0.70092374  0.93290084  0.16808665    -0.31000
N2411       N  0.67408285  0.95113405  0.18331619     0.13200
C2412       C  0.65335586  0.92781026  0.19960752    -0.31000
C2413       C  0.75392838  0.83472130  0.21122535    -0.31300
N2414       N  0.74420961  0.81829817  0.23918755     0.13700
H2415       H  0.78050442  0.83929025  0.20353549     0.16400
C2416       C  0.70916997  0.82675816  0.24401382    -0.31300
H2417       H  0.69458130  0.82369182  0.26714029     0.16400
H2418       H  0.63062950  0.93497906  0.21513798     0.16400
H2419       H  0.69253940  0.84974657  0.09049855     0.16400
H2420       H  0.72208005  0.94443070  0.15444238     0.16400
C2421       C  0.59244050  0.80204395  0.03125305     0.86700
C2422       C  0.61188506  0.82627028  0.05755728    -0.53500
C2423       C  0.62961573  0.81013839  0.08155740     0.09700
C2424       C  0.62814409  0.77133437  0.07704480     0.20600
C2425       C  0.62187032  0.77797873  0.01564693    -0.54200
C2426       C  0.64095777  0.76205055  0.03999418     0.09800
C2427       C  0.56968208  0.77864239  0.05299414    -0.53800
C2428       C  0.58879278  0.76323021  0.07727877     0.10300
H2429       H  0.61026531  0.85404092  0.05822918     0.14900
H2430       H  0.64306937  0.75880572  0.09747602     0.00600
H2431       H  0.62715455  0.77404327  0.98865947     0.15200
H2432       H  0.54108795  0.77641169  0.05138489     0.14900
C2433       C  0.81646386  0.79468469  0.30323489     0.86700
C2434       C  0.79065653  0.81692247  0.28307471    -0.53500
C2435       C  0.76859118  0.79966284  0.26107976     0.09700
C2436       C  0.77452323  0.75970191  0.26151902     0.20600
C2437       C  0.79139648  0.77030326  0.32132888    -0.54200
C2438       C  0.76827546  0.75237961  0.30093358     0.09800
C2439       C  0.83680181  0.77208574  0.27540367    -0.53800
C2440       C  0.81590694  0.75338992  0.25240227     0.10300
H2441       H  0.78940402  0.84463228  0.28619714     0.14900
H2442       H  0.75676853  0.74497311  0.24358497     0.00600
H2443       H  0.78860656  0.77009694  0.34865291     0.15200
H2444       H  0.86540055  0.77278239  0.27298803     0.14900
C2445       C  0.67405623  0.73950159  0.03588523     0.30300
C2446       C  0.73341573  0.70234215  0.05164614     0.30300
C2447       C  0.66766897  0.70474403  0.05067665    -0.05900
C2448       C  0.69649152  0.72939897  0.00433227    -0.06700
C2449       C  0.70214375  0.75711278  0.05878645    -0.06600
C2450       C  0.69715142  0.68818827  0.06273433    -0.05900
C2451       C  0.72735647  0.70970128  0.01081762    -0.06700
C2452       C  0.73162867  0.73806963  0.06731711    -0.06600
C2453       C  0.68421176  0.67369533  0.09195932    -0.32000
N2454       N  0.64814815  0.67243959  0.09156703     0.14500
C2455       C  0.63820958  0.69160478  0.06547555    -0.32000
H2456       H  0.61135136  0.69645207  0.05757278     0.16500
C2457       C  0.74338260  0.70500630  0.47734411    -0.31000
N2458       N  0.72308377  0.72128117  0.45311869     0.13200
C2459       C  0.69516878  0.73560507  0.47047893    -0.31000
C2460       C  0.75833567  0.76060134  0.07431137    -0.31300
N2461       N  0.74596545  0.79262340  0.07219322     0.13700
H2462       H  0.78572668  0.75385308  0.07518451     0.16400
C2463       C  0.71261275  0.79064020  0.06017375    -0.31300
H2464       H  0.69799864  0.81151792  0.04991507     0.16400
H2465       H  0.67362746  0.74881576  0.45849345     0.16400
H2466       H  0.69981365  0.66903249  0.11405245     0.16400
H2467       H  0.76680870  0.69005186  0.47092791     0.16400
C2468       C  0.67609950  0.69715307  0.33208509     0.30300
C2469       C  0.73594401  0.73296919  0.31687721     0.30300
C2470       C  0.67022825  0.73160516  0.31627333    -0.05900
C2471       C  0.69800944  0.70778874  0.36401168    -0.06700
C2472       C  0.70438020  0.67839510  0.31015940    -0.06600
C2473       C  0.69984049  0.74727483  0.30440822    -0.05800
C2474       C  0.72911800  0.72685050  0.35789602    -0.06700
C2475       C  0.73435170  0.69665312  0.30223590    -0.06600
C2476       C  0.68693801  0.76246701  0.27524984    -0.32000
N2477       N  0.65085566  0.76485256  0.27551451     0.14500
C2478       C  0.64089790  0.74585340  0.30158184    -0.32000
H2479       H  0.61410922  0.74224670  0.30989122     0.16500
C2480       C  0.74356282  0.73217579  0.39199691    -0.31000
N2481       N  0.72304988  0.71652402  0.41611592     0.13200
C2482       C  0.69522827  0.70226572  0.39849524    -0.31000
C2483       C  0.76102857  0.67328382  0.29689057    -0.31300
N2484       N  0.74826330  0.64143358  0.29893420     0.13700
H2485       H  0.78858488  0.67937637  0.29691894     0.16400
C2486       C  0.71445190  0.64454955  0.30949772    -0.31300
H2487       H  0.69907311  0.62414024  0.31927168     0.16400
H2488       H  0.67361083  0.68952777  0.41037978     0.16400
H2489       H  0.70246092  0.76718824  0.25337226     0.16400
H2490       H  0.76700100  0.74691816  0.39859809     0.16400
O2491       O  0.03462441  0.55792707  0.46139793    -0.75000
O2492       O  0.57485365  0.01342280  0.47442962    -0.53900
C2493       C  0.55437876  0.54349997  0.47980849     0.78700
O2494       O  0.91462482  0.95139970  0.52376669    -0.59600
O2495       O  0.87540447  0.95018197  0.47897629    -0.52700
C2496       C  0.88383381  0.94684299  0.51037948     0.70700
O2497       O  0.03755221  0.95230080  0.51927249    -0.74200
O2498       O  0.58286535  0.94682867  0.47859704    -0.54800
C2499       C  0.56508054  0.93520357  0.50273284     0.76700
O2500       O  0.91493614  0.56242389  0.44940419    -0.59300
O2501       O  0.87507017  0.52179239  0.45854451    -0.52500
C2502       C  0.88647888  0.55267261  0.46313157     0.73300
Zr2503     Zr  0.97335340  0.54143065  0.46252662     2.54700
O2504       O  0.96695345  0.56294849  0.02038087    -0.79900
O2505       O  0.97702207  0.60300075  0.45506023    -0.93300
Zr2506     Zr  0.97454884  0.94761323  0.50238377     2.64700
O2507       O  0.97737741  0.95463349  0.06441039    -0.98300
O2508       O  0.96876019  0.88885377  0.51889889    -0.80300
O2509       O  0.00916189  0.99221280  0.48280302    -0.83700
O2510       O  0.94184099  0.99418524  0.48127303    -2.18400
O2511       O  0.92045194  0.49283405  0.34142522    -0.67100
O2512       O  0.87747216  0.48953917  0.38176931    -0.51700
C2513       C  0.88791220  0.49235771  0.35095516     0.71700
O2514       O  0.03712211  0.88382699  0.41638722    -0.60000
O2515       O  0.57557322  0.92705149  0.39785261    -0.52000
C2516       C  0.56032485  0.89841715  0.39074152     0.73500
O2517       O  0.91679120  0.87945652  0.41243842    -0.71400
O2518       O  0.87909118  0.92299270  0.40254540    -0.50100
C2519       C  0.88865886  0.89132434  0.39898255     0.74900
O2520       O  0.04184760  0.48915609  0.36057978    -0.66700
O2521       O  0.58523270  0.99461001  0.39511734    -0.53900
C2522       C  0.56283346  0.50413271  0.36565143     0.73200
Zr2523     Zr  0.97778786  0.49909365  0.36922785     2.77500
O2524       O  0.98972667  0.49710721  0.30802463    -0.97500
O2525       O  0.97161907  0.56039582  0.36284471    -0.78300
Zr2526     Zr  0.97644568  0.90190124  0.40970105     2.70100
O2527       O  0.97627155  0.88439657  0.34912085    -0.79500
O2528       O  0.97959608  0.84054620  0.41705283    -0.98600
Zr2529     Zr  0.04743579  0.96875552  0.43845694     2.21500
Zr2530     Zr  0.90880916  0.97156171  0.43273608     2.11100
O2531       O  0.94527352  0.94786418  0.38739645    -2.47300
O2532       O  0.01246470  0.94678696  0.39054143    -0.79300
O2533       O  0.94050437  0.52000979  0.41424531    -0.71500
O2534       O  0.00946228  0.92345892  0.45758977    -2.32500
O2535       O  0.01005330  0.52056664  0.41715873    -2.28700
O2536       O  0.94068072  0.92477096  0.45512305    -0.73300
H2537       H  0.92602284  0.00425716  0.99935642     0.78700
H2538       H  0.02069538  0.90441997  0.46760991     0.79800
H2539       H  0.93166268  0.93765620  0.36861942     0.82000
H2540       H  0.02243266  0.53955667  0.40864406     0.79600
H2541       H  0.96136988  0.87567677  0.49778822     0.42700
H2542       H  0.96428621  0.83666320  0.43686871     0.41600
H2543       H  0.95222453  0.87515397  0.34461512     0.41300
H2544       H  0.99258563  0.47246918  0.30140785     0.39200
H2545       H  0.94729608  0.56323528  0.35379670     0.42400
H2546       H  0.95736177  0.60855065  0.43946866     0.37200
H2547       H  0.98016660  0.03883636  0.03404275     0.43300
H2548       H  0.96489147  0.97650981  0.07008645     0.39700
H2549       H  0.96740212  0.50393012  0.29686643     0.44600
H2550       H  0.00115636  0.60663780  0.93735678     0.43300
H2551       H  0.96188566  0.93687196  0.07327721     0.43500
H2552       H  0.96675836  0.82988946  0.39711592     0.43800
C2553       C  0.84347330  0.81103452  0.36285114    -0.21100
C2554       C  0.83954039  0.81756817  0.32785640    -0.09100
C2555       C  0.85385787  0.84848873  0.31705395     0.29800
C2556       C  0.86729173  0.87328540  0.34085448    -0.21100
C2557       C  0.86863088  0.86737764  0.37578615    -0.09100
C2558       C  0.85756092  0.83561149  0.38644961     0.29800
F2559       F  0.86024444  0.82836378  0.41982187    -0.19600
H2560       H  0.83616542  0.78682426  0.37251895     0.18100
H2561       H  0.87785717  0.89679828  0.33180329     0.18100
F2562       F  0.85413743  0.85521864  0.28346769    -0.19600
C2563       C  0.54322704  0.84264624  0.02552458    -0.21100
C2564       C  0.57181141  0.82526718  0.00883240    -0.09100
C2565       C  0.59143729  0.84344506  0.98540570     0.29800
C2566       C  0.58859803  0.87806294  0.48380311    -0.21100
C2567       C  0.56843137  0.89834762  0.50737395    -0.09100
C2568       C  0.54125401  0.87817814  0.02686072     0.29800
F2569       F  0.51844675  0.89426911  0.04904800    -0.19600
H2570       H  0.52664365  0.83002837  0.04324983     0.18100
H2571       H  0.60346083  0.88944065  0.46384543     0.18100
F2572       F  0.61763492  0.82823276  0.96643801    -0.19600
C2573       C  0.87144822  0.50250401  0.29116843    -0.21100
C2574       C  0.86091833  0.49751474  0.32481113    -0.09100
C2575       C  0.82529724  0.50294435  0.33392958     0.29800
C2576       C  0.80304716  0.51980046  0.31214218    -0.21100
C2577       C  0.81660576  0.53248253  0.28205280    -0.09100
C2578       C  0.84915487  0.51966241  0.26958902     0.29800
F2579       F  0.86015923  0.52494659  0.23745090    -0.19600
H2580       H  0.89789980  0.49582040  0.28244744     0.18100
H2581       H  0.77641319  0.52612374  0.32058115     0.18100
F2582       F  0.81289538  0.49545498  0.36507206    -0.19600
C2583       C  0.81676698  0.92866789  0.07880944    -0.21100
C2584       C  0.82139973  0.89301099  0.07968917    -0.09100
C2585       C  0.84623947  0.87623946  0.05761732     0.29800
C2586       C  0.86475933  0.89430631  0.03461094    -0.21100
C2587       C  0.85967049  0.92938895  0.03336631    -0.09100
C2588       C  0.83624855  0.94693883  0.05573923     0.29800
F2589       F  0.83246825  0.98139141  0.05528662    -0.19600
H2590       H  0.79811757  0.94243646  0.09527541     0.18100
H2591       H  0.88216384  0.88155606  0.51573938     0.18100
F2592       F  0.85151393  0.84182288  0.05724766    -0.19600
C2593       C  0.59601714  0.59450918  0.38056564    -0.21100
C2594       C  0.57415798  0.61248065  0.35851375    -0.09100
C2595       C  0.54508074  0.59462054  0.34300531     0.29800
C2596       C  0.54372385  0.55910078  0.34272852    -0.21100
C2597       C  0.56836054  0.54084395  0.36123978    -0.09100
C2598       C  0.59405242  0.55907795  0.38104580     0.29800
F2599       F  0.61608445  0.04981906  0.41220252    -0.19600
H2600       H  0.61837119  0.60683622  0.39337742     0.18100
H2601       H  0.52319859  0.54588224  0.32796355     0.18100
F2602       F  0.52097418  0.61038722  0.32345084    -0.19600
C2603       C  0.86840264  0.62586730  0.02847320    -0.21100
C2604       C  0.83363074  0.61875569  0.03800863    -0.09100
C2605       C  0.81480002  0.59310905  0.01833414     0.29800
C2606       C  0.83167819  0.57280079  0.99290037    -0.21100
C2607       C  0.86694103  0.57885125  0.98459612    -0.09100
C2608       C  0.88468893  0.60663074  0.00172596     0.29800
F2609       F  0.91819008  0.61494168  0.99331820    -0.19600
H2610       H  0.88291680  0.64677863  0.04102045     0.18100
H2611       H  0.81684912  0.55332824  0.48010382     0.18100
F2612       F  0.77980362  0.58753468  0.02356521    -0.19600
C2613       C  0.54650759  0.83601863  0.31539504    -0.21100
C2614       C  0.55970909  0.85477484  0.28875202    -0.09100
C2615       C  0.56368438  0.89041840  0.29482511     0.29800
C2616       C  0.56539608  0.90424217  0.32829582    -0.21100
C2617       C  0.56033316  0.88331074  0.35569107    -0.09100
C2618       C  0.54909030  0.84940852  0.34889925     0.29800
F2619       F  0.54307016  0.82841920  0.37459236    -0.19600
H2620       H  0.54104223  0.80895076  0.31110343     0.18100
H2621       H  0.57036819  0.93132158  0.33271532     0.18100
F2622       F  0.56566790  0.91195663  0.26901469    -0.19600
C2623       C  0.54025917  0.60478060  0.05557858    -0.21100
C2624       C  0.55378831  0.58603493  0.08230689    -0.09100
C2625       C  0.55726002  0.55038088  0.07652550     0.29800
C2626       C  0.56009895  0.53657995  0.04319398    -0.21100
C2627       C  0.55588116  0.55764755  0.01571072    -0.09100
C2628       C  0.54362729  0.59145296  0.02212933     0.29800
F2629       F  0.53543879  0.61327817  0.49673519    -0.19600
H2630       H  0.53459266  0.63186784  0.05978537     0.18100
H2631       H  0.57091772  0.00643950  0.03942801     0.18100
F2632       F  0.55852341  0.52907264  0.10259544    -0.19600
C2633       C  0.57924477  0.60578722  0.60836432     0.86700
C2634       C  0.60519007  0.62844186  0.58924997    -0.53500
C2635       C  0.62699769  0.64852903  0.60895498     0.09700
C2636       C  0.62138352  0.64298653  0.64748946     0.20600
C2637       C  0.60399511  0.58414985  0.63012363    -0.54200
C2638       C  0.62742040  0.60239919  0.64961650     0.09800
C2639       C  0.55890979  0.63083580  0.63321103    -0.53800
C2640       C  0.57983361  0.65183122  0.65353714     0.10300
H2641       H  0.60632563  0.62869806  0.56158262     0.14900
H2642       H  0.63952095  0.65890372  0.66405031     0.00600
H2643       H  0.60640254  0.55667351  0.62791619     0.15200
H2644       H  0.53044326  0.63445836  0.63159400     0.14900
C2645       C  0.56507868  0.75330793  0.70108201     0.30300
C2646       C  0.56551487  0.68709562  0.67092639     0.30300
C2647       C  0.58142118  0.72521508  0.72138461    -0.05900
C2648       C  0.52608306  0.73700340  0.69398940    -0.06700
C2649       C  0.58032550  0.74839288  0.66545299    -0.06600
C2650       C  0.58096678  0.69193369  0.70657563    -0.05900
C2651       C  0.52643881  0.70304750  0.67768450    -0.06700
C2652       C  0.58157810  0.71509684  0.65080660    -0.06600
C2653       C  0.57509387  0.67112108  0.73310700    -0.32000
N2654       N  0.57544689  0.68937160  0.76320504     0.14500
C2655       C  0.57767840  0.72242185  0.75604839    -0.32000
H2656       H  0.57225992  0.74342548  0.77435861     0.16500
C2657       C  0.99050084  0.69563109  0.67321518    -0.31000
N2658       N  0.96783124  0.72122770  0.68535420     0.13200
C2659       C  0.98936669  0.74755239  0.69835099    -0.31000
C2660       C  0.57823822  0.71770154  0.61607254    -0.31300
N2661       N  0.57539399  0.75065790  0.60872103     0.13700
H2662       H  0.57299848  0.69665662  0.59782663     0.16400
C2663       C  0.57424654  0.76908413  0.63870103    -0.31300
H2664       H  0.56434662  0.79502850  0.64096268     0.16400
H2665       H  0.97931776  0.77145181  0.70974239     0.16400
H2666       H  0.56518646  0.64534887  0.73052257     0.16400
H2667       H  0.98165620  0.67128141  0.66194359     0.16400
C2668       C  0.58364597  0.83461706  0.76354030     0.86700
C2669       C  0.60995667  0.81098562  0.78151030    -0.53500
C2670       C  0.63006049  0.79014434  0.76088970     0.09700
C2671       C  0.62259398  0.79591461  0.72267294     0.20600
C2672       C  0.60748544  0.85523379  0.74051216    -0.54200
C2673       C  0.62949944  0.83627776  0.72028381     0.09800
C2674       C  0.56124768  0.81007178  0.73956809    -0.53800
C2675       C  0.58056314  0.78835197  0.71826455     0.10300
H2676       H  0.61241407  0.81048731  0.80911394     0.14900
H2677       H  0.63952769  0.77937871  0.70550953     0.00600
H2678       H  0.61068136  0.88250826  0.74207681     0.15200
H2679       H  0.53283256  0.80734273  0.74239770     0.14900
C2680       C  0.65928111  0.58463287  0.66771927     0.30300
C2681       C  0.71813238  0.57235760  0.70665878     0.30300
C2682       C  0.66020567  0.60101755  0.70373316    -0.05900
C2683       C  0.66615818  0.54461538  0.67551507    -0.06700
C2684       C  0.69569867  0.59485260  0.65303011    -0.06600
C2685       C  0.68953301  0.59419903  0.72336389    -0.05900
C2686       C  0.69700268  0.53947776  0.69567778    -0.06700
C2687       C  0.72462405  0.58886007  0.67322377    -0.06600
C2688       C  0.67942484  0.59741413  0.75678429    -0.32000
N2689       N  0.64612943  0.60949897  0.75824320     0.14500
C2690       C  0.63348016  0.60959656  0.72605826    -0.32000
H2691       H  0.60611462  0.61127179  0.71918110     0.16500
C2692       C  0.69943987  0.50506403  0.70237919    -0.31000
N2693       N  0.67236232  0.98754988  0.68642913     0.13200
C2694       C  0.65190311  0.51080150  0.67045434    -0.31000
C2695       C  0.75396419  0.60230387  0.65858416    -0.31300
N2696       N  0.74442682  0.61862579  0.63047202     0.13700
H2697       H  0.78047578  0.59811580  0.66708366     0.16400
C2698       C  0.70944036  0.61030719  0.62488359    -0.31300
H2699       H  0.69506278  0.61339464  0.60145714     0.16400
H2700       H  0.62942666  0.00492480  0.65400389     0.16400
H2701       H  0.69404256  0.58801927  0.77798281     0.16400
H2702       H  0.72076573  0.99254954  0.71506691     0.16400
C2703       C  0.81567040  0.64112162  0.56661544     0.86700
C2704       C  0.79194773  0.61920260  0.58844317    -0.53500
C2705       C  0.76916234  0.63685867  0.60920529     0.09700
C2706       C  0.77466294  0.67674693  0.60809343     0.20600
C2707       C  0.79052781  0.66515226  0.54831210    -0.54200
C2708       C  0.76753874  0.68325752  0.56846815     0.09800
C2709       C  0.83687853  0.66422111  0.59367358    -0.53800
C2710       C  0.81644910  0.68308373  0.61690507     0.10300
H2711       H  0.79261267  0.59141033  0.58712860     0.14900
H2712       H  0.75697068  0.69170121  0.62585773     0.00600
H2713       H  0.78921551  0.66540300  0.52070112     0.15200
H2714       H  0.86545850  0.66336563  0.59627277     0.14900
C2715       C  0.59576017  0.63671730  0.83829657     0.86700
C2716       C  0.61352241  0.61188084  0.81143054    -0.53500
C2717       C  0.63096564  0.62748290  0.78721137     0.09700
C2718       C  0.63066689  0.66621320  0.79177008     0.20600
C2719       C  0.62629670  0.65963178  0.85313914    -0.54200
C2720       C  0.64488665  0.67493650  0.82841322     0.09800
C2721       C  0.57285120  0.66108434  0.81736987    -0.53800
C2722       C  0.59150226  0.67576298  0.79258683     0.10300
H2723       H  0.61138820  0.58416827  0.81084469     0.14900
H2724       H  0.64531173  0.67818023  0.77105189     0.00600
H2725       H  0.63260577  0.66279176  0.88000769     0.15200
H2726       H  0.54457646  0.66507223  0.82008418     0.14900
C2727       C  0.83163321  0.70244159  0.65203553     0.30300
C2728       C  0.83169862  0.73546850  0.71793694     0.30300
C2729       C  0.81526830  0.68378714  0.68101403    -0.05900
C2730       C  0.87070126  0.70971013  0.66860633    -0.06700
C2731       C  0.81678470  0.73887669  0.65581994    -0.06600
C2732       C  0.81535892  0.69996899  0.71379760    -0.05900
C2733       C  0.87061364  0.72727200  0.70210217    -0.06700
C2734       C  0.81601644  0.75476399  0.68884848    -0.06600
C2735       C  0.81872964  0.67401394  0.73596963    -0.32000
N2736       N  0.81827832  0.64318620  0.71876555     0.14500
C2737       C  0.81823520  0.64922301  0.68534015    -0.32000
H2738       H  0.82490059  0.63025567  0.66529556     0.16500
C2739       C  0.90676610  0.73332567  0.71064108    -0.31000
N2740       N  0.92904581  0.72009666  0.68529458     0.13200
C2741       C  0.90715903  0.70558325  0.65997474    -0.31000
C2742       C  0.82034368  0.78921610  0.68524154    -0.31300
N2743       N  0.82270293  0.79580751  0.65209710     0.13700
H2744       H  0.82712652  0.80751145  0.70586511     0.16400
C2745       C  0.82331648  0.76514953  0.63454484    -0.31300
H2746       H  0.83323070  0.76191045  0.60876998     0.16400
H2747       H  0.91680425  0.69352576  0.63628988     0.16400
H2748       H  0.82804503  0.67752656  0.76184606     0.16400
H2749       H  0.91600791  0.74647092  0.73398767     0.16400
C2750       C  0.79960030  0.87187175  0.60048345     0.86700
C2751       C  0.77873988  0.84640072  0.57671720    -0.53500
C2752       C  0.76246951  0.82196538  0.59340619     0.09700
C2753       C  0.76635457  0.82570119  0.63207794     0.20600
C2754       C  0.77123883  0.88731986  0.62555797    -0.54200
C2755       C  0.75344009  0.86267959  0.64201838     0.09800
C2756       C  0.82386441  0.84962834  0.62248752    -0.53800
C2757       C  0.80612387  0.82514831  0.63839608     0.10300
H2758       H  0.77865876  0.84639218  0.54899943     0.14900
H2759       H  0.75237437  0.80511077  0.64493512     0.00600
H2760       H  0.76485501  0.91419335  0.62876577     0.15200
H2761       H  0.85259104  0.85111873  0.62287515     0.14900
C2762       C  0.80048192  0.56203319  0.76495550     0.86700
C2763       C  0.78332405  0.58610374  0.79313286    -0.53500
C2764       C  0.76448501  0.61208069  0.78054616     0.09700
C2765       C  0.76424777  0.61186963  0.74158673     0.20600
C2766       C  0.77022975  0.54983335  0.74123568    -0.54200
C2767       C  0.75090525  0.57571757  0.72907759     0.09800
C2768       C  0.82296219  0.58700930  0.74451089    -0.53800
C2769       C  0.80345582  0.61312190  0.73243135     0.10300
H2770       H  0.78747790  0.58414519  0.82037756     0.14900
H2771       H  0.74886307  0.63355224  0.73174802     0.00600
H2772       H  0.76505276  0.52311329  0.73504038     0.15200
H2773       H  0.85159598  0.58646331  0.74261762     0.14900
C2774       C  0.66156484  0.85345184  0.70239012     0.30300
C2775       C  0.72057229  0.86638260  0.66437263     0.30300
C2776       C  0.66340468  0.83637435  0.66682570    -0.05900
C2777       C  0.66755052  0.89340525  0.69404580    -0.06700
C2778       C  0.69803673  0.84403716  0.71805100    -0.06600
C2779       C  0.69229868  0.84400098  0.64737343    -0.05900
C2780       C  0.69849182  0.89881827  0.67451171    -0.06700
C2781       C  0.72715869  0.85037188  0.69848654    -0.06600
C2782       C  0.68163812  0.84065550  0.61388319    -0.32000
N2783       N  0.64918056  0.82671012  0.61244845     0.14500
C2784       C  0.63706477  0.82621205  0.64458146    -0.32000
H2785       H  0.61002568  0.82336123  0.65146488     0.16500
C2786       C  0.70042481  0.93311069  0.66776882    -0.31000
N2787       N  0.67245131  0.95067209  0.68185173     0.13200
C2788       C  0.65247276  0.92702303  0.69846107    -0.31000
C2789       C  0.75650401  0.83698026  0.71405139    -0.31300
N2790       N  0.74670973  0.82063671  0.74202951     0.13700
H2791       H  0.78310791  0.84068446  0.70592141     0.16400
C2792       C  0.71147201  0.82850597  0.74651793    -0.31300
H2793       H  0.69652914  0.82446676  0.76923378     0.16400
H2794       H  0.62925963  0.93369769  0.71349209     0.16400
H2795       H  0.69538532  0.85063159  0.59261524     0.16400
H2796       H  0.72160415  0.94508328  0.65452245     0.16400
C2797       C  0.59463234  0.80324411  0.53365178     0.86700
C2798       C  0.61550573  0.82670020  0.55960672    -0.53500
C2799       C  0.63303962  0.80985897  0.58320007     0.09700
C2800       C  0.63030922  0.77117507  0.57841786     0.20600
C2801       C  0.62318198  0.77857126  0.51721265    -0.54200
C2802       C  0.64241830  0.76210540  0.54110795     0.09800
C2803       C  0.57168576  0.78030200  0.55549700    -0.53800
C2804       C  0.59073451  0.76405736  0.57913752     0.10300
H2805       H  0.61480833  0.85451029  0.56051015     0.14900
H2806       H  0.64519948  0.75811405  0.59851975     0.00600
H2807       H  0.62818381  0.77477561  0.49018423     0.15200
H2808       H  0.54297603  0.77914303  0.55442939     0.14900
C2809       C  0.81862557  0.79418334  0.80534868     0.86700
C2810       C  0.79313826  0.81746180  0.78594277    -0.53500
C2811       C  0.77086050  0.80112295  0.76339177     0.09700
C2812       C  0.77644214  0.76105618  0.76244802     0.20600
C2813       C  0.79338944  0.76935217  0.82244738    -0.54200
C2814       C  0.77016302  0.75235242  0.80150680     0.09800
C2815       C  0.83880171  0.77238525  0.77684212    -0.53800
C2816       C  0.81775164  0.75476701  0.75318978     0.10300
H2817       H  0.79251092  0.84514208  0.78987923     0.14900
H2818       H  0.75865829  0.74703322  0.74400781     0.00600
H2819       H  0.79068554  0.76790136  0.84960866     0.15200
H2820       H  0.86742934  0.77269792  0.77464143     0.14900
C2821       C  0.67554921  0.73972084  0.53648915     0.30300
C2822       C  0.73510751  0.70277930  0.55227477     0.30300
C2823       C  0.66940781  0.70500772  0.55166601    -0.05900
C2824       C  0.69763162  0.72935466  0.50484586    -0.06700
C2825       C  0.70391205  0.75755498  0.55891000    -0.06600
C2826       C  0.69899385  0.68859635  0.56370228    -0.05900
C2827       C  0.72867792  0.70983979  0.51123796    -0.06700
C2828       C  0.73295626  0.73845413  0.56793022    -0.06600
C2829       C  0.68624394  0.67430721  0.59314782    -0.32000
N2830       N  0.65017704  0.67290658  0.59296254     0.14500
C2831       C  0.64009562  0.69190267  0.56677407    -0.32000
H2832       H  0.61320762  0.69654299  0.55885142     0.16500
C2833       C  0.74269619  0.70524737  0.97727960    -0.31000
N2834       N  0.72301902  0.72203250  0.95307432     0.13200
C2835       C  0.69480233  0.73624208  0.97007830    -0.31000
C2836       C  0.75880640  0.76057352  0.57847001    -0.31300
N2837       N  0.74665729  0.79270169  0.57649263     0.13700
H2838       H  0.78563783  0.75351071  0.58259245     0.16400
C2839       C  0.71434971  0.79113158  0.56175015    -0.31300
H2840       H  0.70025981  0.81238805  0.55159467     0.16400
H2841       H  0.67361262  0.74974280  0.95787253     0.16400
H2842       H  0.70195431  0.66985906  0.61522001     0.16400
H2843       H  0.76613140  0.69026085  0.97101011     0.16400
C2844       C  0.67826633  0.69654640  0.83193850     0.30300
C2845       C  0.73793307  0.73258815  0.81705333     0.30300
C2846       C  0.67236761  0.73048119  0.81550583    -0.05900
C2847       C  0.69948763  0.70785627  0.86394003    -0.06700
C2848       C  0.70686246  0.67763897  0.81060500    -0.06600
C2849       C  0.70191779  0.74640652  0.80401993    -0.05800
C2850       C  0.73056398  0.72699184  0.85803947    -0.06700
C2851       C  0.73693072  0.69594494  0.80292823    -0.06600
C2852       C  0.68913649  0.76260801  0.77549599    -0.32000
N2853       N  0.65306177  0.76458336  0.77572432     0.14500
C2854       C  0.64305574  0.74490512  0.80120275    -0.32000
H2855       H  0.61635459  0.74136697  0.80973091     0.16500
C2856       C  0.74441430  0.73275836  0.89228569    -0.31000
N2857       N  0.72350640  0.71728887  0.91616680     0.13200
C2858       C  0.69607370  0.70275230  0.89837306    -0.31000
C2859       C  0.76383188  0.67249209  0.79902418    -0.31300
N2860       N  0.75110909  0.64059424  0.80116435     0.13700
H2861       H  0.79142555  0.67857081  0.80034811     0.16400
C2862       C  0.71702524  0.64386887  0.81080350    -0.31300
H2863       H  0.70143743  0.62360317  0.82059827     0.16400
H2864       H  0.67442400  0.69008019  0.91020623     0.16400
H2865       H  0.70470779  0.76862257  0.75406888     0.16400
H2866       H  0.76771975  0.74757069  0.89917966     0.16400
O2867       O  0.03580591  0.55872610  0.95910228    -0.75000
O2868       O  0.57189210  0.01099257  0.97505228    -0.53900
C2869       C  0.55776018  0.54269326  0.98072810     0.78700
O2870       O  0.91436997  0.95233434  0.02509939    -0.59600
O2871       O  0.87503546  0.94934008  0.98043528    -0.52700
C2872       C  0.88378580  0.94639643  0.01184145     0.70700
O2873       O  0.03573645  0.95429435  0.01988011    -0.74200
O2874       O  0.57848289  0.94752605  0.98231270    -0.54800
C2875       C  0.55998728  0.93395892  0.00478566     0.76700
O2876       O  0.91507210  0.56422611  0.94813555    -0.59300
O2877       O  0.87529358  0.52317683  0.95678637    -0.52500
C2878       C  0.88636853  0.55420522  0.96134506     0.73300
Zr2879     Zr  0.97389221  0.54338407  0.96066208     2.54700
O2880       O  0.96769796  0.55597336  0.52352652    -0.79900
O2881       O  0.97866771  0.60413189  0.94981617    -0.93300
Zr2882     Zr  0.97347273  0.94673183  0.00237867     2.64700
O2883       O  0.97782708  0.96320817  0.56355001    -0.98300
O2884       O  0.96864742  0.88561359  0.01015658    -0.80300
O2885       O  0.00799815  0.99139209  0.98266282    -0.83700
O2886       O  0.94096868  0.99387753  0.98171982    -2.18400
O2887       O  0.92131546  0.49186127  0.83997857    -0.67100
O2888       O  0.87770481  0.48808025  0.87958176    -0.51700
C2889       C  0.88866967  0.49079394  0.84883502     0.71700
O2890       O  0.03457930  0.88072537  0.91653499    -0.60000
O2891       O  0.57387877  0.92244431  0.90371728    -0.52000
C2892       C  0.55764873  0.89474339  0.89475818     0.73500
O2893       O  0.91469735  0.88040387  0.91896177    -0.71400
O2894       O  0.87753090  0.92228475  0.90440882    -0.50100
C2895       C  0.88764832  0.89077702  0.90276010     0.74900
O2896       O  0.04149993  0.49036797  0.85665843    -0.66700
O2897       O  0.58203321  0.99171200  0.89618280    -0.53900
C2898       C  0.56621845  0.50598854  0.87047457     0.73200
Zr2899     Zr  0.97793565  0.49906211  0.86833739     2.77500
O2900       O  0.98664585  0.49826187  0.80674747    -0.97500
O2901       O  0.97143756  0.56033835  0.86161471    -0.78300
Zr2902     Zr  0.97430280  0.90054475  0.91058296     2.70100
O2903       O  0.97157416  0.87916126  0.85106400    -0.79500
O2904       O  0.97087638  0.83992250  0.92163455    -0.98600
Zr2905     Zr  0.04579409  0.96750945  0.93830866     2.21500
Zr2906     Zr  0.90726982  0.97129882  0.93356177     2.11100
O2907       O  0.94312246  0.94672820  0.88803553    -2.47300
O2908       O  0.01028741  0.94524508  0.89088009    -0.79300
O2909       O  0.94068322  0.52110959  0.91281886    -0.71500
O2910       O  0.00835501  0.92234232  0.95772328    -2.32500
O2911       O  0.01033161  0.52107448  0.91576055    -2.28700
O2912       O  0.93897467  0.92451623  0.95571851    -0.73300
H2913       H  0.92672648  0.00422680  0.49896261     0.78700
H2914       H  0.02026204  0.90342030  0.96771274     0.79800
H2915       H  0.92924593  0.93669542  0.86934306     0.82000
H2916       H  0.02285225  0.53975102  0.90679199     0.79600
H2917       H  0.95735049  0.88404488  0.03272375     0.42700
H2918       H  0.97191227  0.82771203  0.89885790     0.41600
H2919       H  0.97757798  0.89909378  0.83779764     0.41300
H2920       H  0.97499796  0.47705467  0.79756776     0.39200
H2921       H  0.94618535  0.56349223  0.85549896     0.42400
H2922       H  0.96030584  0.60832388  0.93239450     0.37200
H2923       H  0.97823195  0.03753523  0.53433367     0.43300
H2924       H  0.99864423  0.97839081  0.56654535     0.39700
H2925       H  0.97152043  0.51706347  0.79890522     0.44600
H2926       H  0.99839117  0.60616439  0.44109493     0.43300
H2927       H  0.95739826  0.97867826  0.56830376     0.43500
H2928       H  0.99334837  0.83402201  0.93308892     0.43800
C2929       C  0.84406320  0.80990794  0.86591566    -0.21100
C2930       C  0.84183475  0.81602668  0.83065462    -0.09100
C2931       C  0.85813422  0.84593258  0.81985892     0.29800
C2932       C  0.87107749  0.87083814  0.84375293    -0.21100
C2933       C  0.87007964  0.86577571  0.87885121    -0.09100
C2934       C  0.85802477  0.83440918  0.88963790     0.29800
F2935       F  0.85947332  0.82754116  0.92318490    -0.19600
H2936       H  0.83555003  0.78619943  0.87580901     0.18100
H2937       H  0.88269481  0.89390320  0.83474780     0.18100
F2938       F  0.86029848  0.85174304  0.78613801    -0.19600
C2939       C  0.54792183  0.84686198  0.53159082    -0.21100
C2940       C  0.57345940  0.82719379  0.51258987    -0.09100
C2941       C  0.59098531  0.84288576  0.48614362     0.29800
C2942       C  0.58790093  0.87878739  0.98503588    -0.21100
C2943       C  0.56415043  0.89673619  0.00716661    -0.09100
C2944       C  0.54773502  0.88235067  0.53107770     0.29800
F2945       F  0.52913001  0.90095061  0.55519548    -0.19600
H2946       H  0.53356707  0.83613385  0.55220588     0.18100
H2947       H  0.60476961  0.89213721  0.96799477     0.18100
F2948       F  0.61360590  0.82527288  0.46491466    -0.19600
C2949       C  0.87414344  0.50234912  0.78884769    -0.21100
C2950       C  0.86245381  0.49556751  0.82180200    -0.09100
C2951       C  0.82641426  0.49969782  0.82966405     0.29800
C2952       C  0.80479326  0.51747731  0.80806240    -0.21100
C2953       C  0.81941941  0.53226031  0.77951261    -0.09100
C2954       C  0.85244854  0.52041286  0.76744788     0.29800
F2955       F  0.86426996  0.52717446  0.73592846    -0.19600
H2956       H  0.90101696  0.49654710  0.78078301     0.18100
H2957       H  0.77776797  0.52305702  0.81579039     0.18100
F2958       F  0.81296840  0.49016493  0.85969711    -0.19600
C2959       C  0.81649838  0.92987442  0.57754201    -0.21100
C2960       C  0.82104445  0.89417644  0.57849280    -0.09100
C2961       C  0.84522038  0.87725912  0.55584635     0.29800
C2962       C  0.86350552  0.89516544  0.53259266    -0.21100
C2963       C  0.85901803  0.93031444  0.53162978    -0.09100
C2964       C  0.83591383  0.94806324  0.55424928     0.29800
F2965       F  0.83258926  0.98258631  0.55402164    -0.19600
H2966       H  0.79828678  0.94374335  0.59441305     0.18100
H2967       H  0.88368071  0.88087055  0.01791695     0.18100
F2968       F  0.85068275  0.84289433  0.55566654    -0.19600
C2969       C  0.59839029  0.59701547  0.88463507    -0.21100
C2970       C  0.57646786  0.61419082  0.86192602    -0.09100
C2971       C  0.54718961  0.59601232  0.84742685     0.29800
C2972       C  0.54634043  0.56054688  0.84762914    -0.21100
C2973       C  0.57114386  0.54285657  0.86644381    -0.09100
C2974       C  0.59642001  0.56165545  0.88629012     0.29800
F2975       F  0.61589691  0.04602766  0.91015899    -0.19600
H2976       H  0.62073716  0.60973757  0.89706853     0.18100
H2977       H  0.52635093  0.54678779  0.83264703     0.18100
F2978       F  0.52281317  0.61123341  0.82774836    -0.19600
C2979       C  0.87051912  0.62356011  0.53158548    -0.21100
C2980       C  0.83492872  0.61846209  0.53964425    -0.09100
C2981       C  0.81551320  0.59367390  0.51937616     0.29800
C2982       C  0.83209769  0.57291584  0.49410549    -0.21100
C2983       C  0.86787082  0.57737222  0.48688251    -0.09100
C2984       C  0.88666918  0.60369916  0.50523121     0.29800
F2985       F  0.92105497  0.60993943  0.49846084    -0.19600
H2986       H  0.88588709  0.64335850  0.54495826     0.18100
H2987       H  0.81705724  0.55227999  0.97965137     0.18100
F2988       F  0.78022396  0.58929653  0.52397024    -0.19600
C2989       C  0.54793729  0.83524111  0.81657873    -0.21100
C2990       C  0.56325109  0.85473051  0.79145700    -0.09100
C2991       C  0.56921133  0.88990543  0.79968211     0.29800
C2992       C  0.56871383  0.90225206  0.83361527    -0.21100
C2993       C  0.55989113  0.88067878  0.85948187    -0.09100
C2994       C  0.54777425  0.84749931  0.85056369     0.29800
F2995       F  0.53804975  0.82609110  0.87483839    -0.19600
H2996       H  0.54168610  0.80852692  0.81088006     0.18100
H2997       H  0.57493955  0.92888529  0.83956804     0.18100
F2998       F  0.57516718  0.91277995  0.77574648    -0.19600
C2999       C  0.54225743  0.60574634  0.55573843    -0.21100
C3000       C  0.55620230  0.58651914  0.58195743    -0.09100
C3001       C  0.55899092  0.55082993  0.57577863     0.29800
C3002       C  0.55970143  0.53712809  0.54225329    -0.21100
C3003       C  0.55423185  0.55830058  0.51501309    -0.09100
C3004       C  0.54309320  0.59230193  0.52216056     0.29800
F3005       F  0.53700106  0.61227832  0.99629792    -0.19600
H3006       H  0.53739109  0.63294253  0.56023538     0.18100
H3007       H  0.56601902  0.00940661  0.53933964     0.18100
F3008       F  0.56110932  0.52924701  0.60157068    -0.19600
loop_ 
_geom_bond_atom_site_label_1 
_geom_bond_atom_site_label_2 
_geom_bond_distance 
_geom_bond_site_symmetry_2 
_ccdc_geom_bond_type 
C1            C2   1.552       .  S
C1            C7   1.545       .  S
C1            C5   1.541       .  S
C1          C368   1.516       .  S
C2            H9   1.086       .  S
C2            C3   1.352       .  D
C3            C4   1.551       .  S
C3          N198   1.466       .  S
C4            C8   1.621       .  S
C4            C6   1.608       .  S
C4           H10   1.110       .  S
C5           H11   1.078       .  S
C5            C6   1.344       .  D
C6           C48   1.566       .  S
C7           H12   1.085       .  S
C7            C8   1.362       .  D
C8           C14   1.597       .  S
C13          C43   1.606       .  S
C13          C15   1.521       .  S
C13          C17   1.519       .  S
C13          C16   1.623       .  S
C14          C18   1.515       .  S
C14          C20   1.518       .  S
C14          C19   1.618       .  S
C15          C23   1.379       .  A
C15          C18   1.395       .  A
C16          C19   1.442       .  A
C16        C1531   1.423   1_455  A
C17          C31   1.382       .  A
C17          C20   1.396       .  A
C18          C21   1.380       .  A
C19        C1529   1.421   1_455  A
C20          C28   1.378       .  A
C21          N22   1.345       .  A
C21          H34   1.079       .  S
N22          C90   1.428       .  S
N22          C23   1.343       .  A
C23          H24   1.079       .  S
C25        C1523   1.421       .  A
C25          N26   1.383       .  A
C25          H35   1.082       .  S
N26          C27   1.384       .  A
N26         N108   1.463       .  S
C27        C1520   1.422       .  A
C27          H33   1.082       .  S
C28          N29   1.340       .  A
C28          H30   1.079       .  S
N29         C172   1.427       .  S
N29          C31   1.346       .  A
C31          H32   1.080       .  S
C36          C37   1.548       .  S
C36          C42   1.554       .  S
C36          C40   1.538       .  S
C36         C358   1.522       .  S
C37          H44   1.087       .  S
C37          C38   1.349       .  D
C38          C39   1.556       .  S
C38         N221   1.467       .  S
C39          C43   1.622       .  S
C39          C41   1.611       .  S
C39          H45   1.110       .  S
C40          H46   1.075       .  S
C40          C41   1.342       .  D
C41         C142   1.569       .  S
C42          H47   1.085       .  S
C42          C43   1.369       .  D
C48          C50   1.513       .  S
C48          C52   1.555       .  S
C48          C51   1.628       .  S
C49         C135   1.513       .  S
C49          C53   1.502       .  S
C49          C55   1.518       .  S
C49          C54   1.551       .  S
C50          C58   1.364       .  A
C50          C53   1.375       .  A
C51          C62   1.430       .  A
C51          C54   1.422       .  A
C52          C66   1.390       .  A
C52          C55   1.375       .  A
C53          C56   1.363       .  A
C54          C60   1.386       .  A
C55          C63   1.370       .  A
C56          N57   1.339       .  A
C56          H69   1.076       .  S
N57          C85   1.419       .  S
N57          C58   1.344       .  A
C58          H59   1.066       .  S
C60         N813   1.358   1_545  A
C60         H822   1.078   1_545  S
N61         C812   1.358       .  A
N61         C814   1.392       .  A
N61         N155   1.449       .  S
C62         N813   1.388   1_545  A
C62         H820   1.081       .  S
C63          N64   1.351       .  A
C63          H65   1.068       .  S
N64          C73   1.466       .  S
N64          C66   1.373       .  A
C66          H67   1.076       .  S
H68         C814   1.081       .  S
H70         C812   1.077       .  S
C71          C72   1.537       .  S
C71          C77   1.573       .  S
C71          C75   1.533       .  S
C71         C348   1.525       .  S
C72          H79   1.087       .  S
C72          C73   1.346       .  D
C73          C74   1.577       .  S
C74          C78   1.623       .  S
C74          C76   1.605       .  S
C74          H80   1.108       .  S
C75          H81   1.083       .  S
C75          C76   1.347       .  D
C76         C190   1.580       .  S
C77          H82   1.083       .  S
C77          C78   1.379       .  D
C78          C95   1.629       .  S
C83          C84   1.542       .  S
C83          C89   1.549       .  S
C83          C87   1.564       .  S
C83         C338   1.510       .  S
C84          H91   1.088       .  S
C84          C85   1.332       .  D
C85          C86   1.514       .  S
C86          C90   1.521       .  S
C86          C88   1.552       .  S
C86          H92   1.112       .  S
C87          H93   1.081       .  S
C87          C88   1.371       .  D
C88         C212   1.528       .  S
C89          H94   1.084       .  S
C89          C90   1.360       .  D
C95          C97   1.521       .  S
C95          C99   1.524       .  S
C95          C98   1.622       .  S
C96         C184   1.626       .  S
C96         C100   1.526       .  S
C96         C102   1.517       .  S
C96         C101   1.620       .  S
C97         C105   1.375       .  A
C97         C100   1.404       .  A
C98         C109   1.421       .  A
C98         C101   1.446       .  A
C99         C113   1.380       .  A
C99         C102   1.403       .  A
C100        C103   1.381       .  A
C101        C107   1.421       .  A
C102        C110   1.374       .  A
C103        N104   1.348       .  A
C103        H116   1.078       .  S
N104        C137   1.435       .  S
N104        C105   1.344       .  A
C105        H106   1.080       .  S
C107        N108   1.383       .  A
C107        H117   1.082       .  S
N108        C109   1.384       .  A
C109        H115   1.081       .  S
C110        N111   1.342       .  A
C110        H112   1.080       .  S
N111        C125   1.432       .  S
N111        C113   1.348       .  A
C113        H114   1.077       .  S
C118        C119   1.542       .  S
C118        C124   1.551       .  S
C118        C122   1.552       .  S
C118        C328   1.497       .  S
C119        H126   1.087       .  S
C119        C120   1.341       .  D
C120        C121   1.525       .  S
C120        N205   1.427       .  S
C121        C125   1.522       .  S
C121        C123   1.558       .  S
C121        H127   1.112       .  S
C122        H128   1.079       .  S
C122        C123   1.366       .  D
C123        C143   1.521       .  S
C124        H129   1.086       .  S
C124        C125   1.354       .  D
C130        C131   1.551       .  S
C130        C136   1.556       .  S
C130        C134   1.530       .  S
C130        C321   1.499       .  S
C131        H138   1.085       .  S
C131        C132   1.353       .  D
C132        C133   1.528       .  S
C132        N228   1.431       .  S
C133        C137   1.523       .  S
C133        C135   1.555       .  S
C133        H139   1.112       .  S
C134        H140   1.079       .  S
C134        C135   1.353       .  D
C136        H141   1.084       .  S
C136        C137   1.358       .  D
C142        C144   1.513       .  S
C142        C146   1.552       .  S
C142        C145   1.635       .  S
C143        C147   1.511       .  S
C143        C149   1.530       .  S
C143        C148   1.556       .  S
C144        C152   1.365       .  A
C144        C147   1.372       .  A
C145        C156   1.434       .  A
C145        C148   1.424       .  A
C146        C160   1.391       .  A
C146        C149   1.373       .  A
C147        C150   1.369       .  A
C148        C154   1.392       .  A
C149        C157   1.378       .  A
C150        N151   1.345       .  A
C150        H163   1.076       .  S
N151        C167   1.428       .  S
N151        C152   1.347       .  A
C152        H153   1.065       .  S
C154        N155   1.363       .  A
C154        H164   1.080       .  S
N155        C156   1.390       .  A
C156        H162   1.081       .  S
C157        N158   1.357       .  A
C157        H159   1.069       .  S
N158        C179   1.474       .  S
N158        C160   1.373       .  A
C160        H161   1.076       .  S
C165        C166   1.548       .  S
C165        C171   1.551       .  S
C165        C169   1.557       .  S
C165        C308   1.510       .  S
C166        H173   1.087       .  S
C166        C167   1.338       .  D
C167        C168   1.517       .  S
C168        C172   1.521       .  S
C168        C170   1.555       .  S
C168        H174   1.112       .  S
C169        H175   1.080   1_554  S
C169        C170   1.368       .  D
C170        C189   1.523       .  S
C171        H176   1.085       .  S
C171        C172   1.356       .  D
C177        C178   1.548       .  S
C177        C183   1.563       .  S
C177        C181   1.546       .  S
C177        C298   1.538       .  S
C178        H185   1.086       .  S
C178        C179   1.350       .  D
C179        C180   1.580       .  S
C180        C184   1.620       .  S
C180        C182   1.607       .  S
C180        H186   1.108       .  S
C181        H187   1.078       .  S
C181        C182   1.350       .  D
C182        C213   1.585       .  S
C183        H188   1.085       .  S
C183        C184   1.373       .  D
C189        C191   1.529       .  S
C189        C193   1.531       .  S
C189        C192   1.531       .  S
C190        C194   1.554       .  S
C190        C196   1.498       .  S
C190        C195   1.657       .  S
C191        C199   1.373       .  A
C191        C194   1.376       .  A
C192        C195   1.422       .  A
C192        C579   1.382   1_554  A
C193        C207   1.374       .  A
C193        C196   1.384       .  A
C194        C197   1.401       .  A
C195        C577   1.442   1_554  A
C196        C204   1.361       .  A
C197        N198   1.363       .  A
C197        H210   1.069       .  S
N198        C199   1.351       .  A
C199        H200   1.078       .  S
C201        C571   1.440       .  A
C201        N202   1.392       .  A
C201        H211   1.080       .  S
N202        C203   1.359       .  A
N202        N225   1.447       .  S
C203        C568   1.383       .  A
C203        H209   1.081       .  S
C204        N205   1.343       .  A
C204        H206   1.066       .  S
N205        C207   1.346       .  A
C207        H208   1.079       .  S
C212        C214   1.533       .  S
C212        C216   1.532       .  S
C212        C215   1.530       .  S
C213        C217   1.552       .  S
C213        C219   1.501       .  S
C213        C218   1.658       .  S
C214        C222   1.374       .  A
C214        C217   1.376       .  A
C215        C226   1.381       .  A
C215        C218   1.424       .  A
C216        C230   1.376       .  A
C216        C219   1.384       .  A
C217        C220   1.400       .  A
C218        C224   1.442       .  A
C219        C227   1.362       .  A
C220        N221   1.363       .  A
C220        H233   1.067       .  S
N221        C222   1.354       .  A
C222        H223   1.077       .  S
C224        N225   1.393       .  A
C224        H234   1.081       .  S
N225        C226   1.357       .  A
C226        H232   1.081       .  S
C227        N228   1.345       .  A
C227        H229   1.065       .  S
N228        C230   1.348       .  A
C230        H231   1.080       .  S
O235       Zr247   2.409       .  S
O235       C1741   1.260       .  A
O236      Zr1777   2.443       .  S
O236        C989   1.281       .  A
C237       O1739   1.262       .  A
C237        O988   1.278       .  A
C237        C747   1.462       .  S
O238       Zr250   2.408       .  S
O238        C240   1.280       .  A
O239       Zr274   2.407       .  S
O239        C240   1.283       .  A
C240        C707   1.435       .  S
O241       Zr250   2.460       .  S
O241       C1747   1.286       .  A
O242      Zr1777   2.374       .  S
O242        C243   1.270       .  A
C243       O1745   1.284       .  A
C243        C311   1.469       .  S
O244       Zr247   2.409       .  S
O244        C246   1.274       .  A
O245      Zr1026   2.459   1_545  S
O245        C246   1.290       .  A
C246        C727   1.484       .  S
Zr247       O249   2.445       .  S
Zr247       O624   2.436       .  S
Zr247       O277   2.371       .  S
Zr247       O279   2.357       .  S
Zr247      O1005   2.379   1_545  S
Zr247      O1006   2.368   1_545  S
O248       Zr623   2.437   1_554  S
O248       H1043   0.990       .  S
O249        H290   0.989       .  S
O249        H670   0.991       .  S
Zr250       O252   2.439       .  S
Zr250       O627   2.437       .  S
Zr250       O254   2.385       .  S
Zr250       O253   2.354       .  S
Zr250       O278   2.353       .  S
Zr250       O280   2.372       .  S
O251       Zr626   2.435       .  S
O251        H292   0.990       .  S
O251        H295   0.990       .  S
O252        H285   0.990       .  S
O253       Zr273   2.401       .  S
O253       Zr999   2.376       .  S
O254       Zr274   2.396       .  S
O254       Zr999   2.369       .  S
O254        H657   0.966       .  S
O255       Zr267   2.419       .  S
O255        C257   1.286       .  A
O256      Zr1026   2.386       .  S
O256        C257   1.282       .  A
C257        C318   1.458       .  S
O258       Zr270   2.411       .  S
O258       C1764   1.264       .  A
O259      Zr1777   2.443       .  S
O259        C260   1.281       .  A
C260       O1762   1.264       .  A
C260        C361   1.469       .  S
O261       Zr270   2.426       .  S
O261        C263   1.277       .  A
O262       Zr274   2.426       .  S
O262        C263   1.282       .  A
C263        C301   1.467       .  S
O264       Zr267   2.468       .  S
O264       C1770   1.287   1_565  A
O265      Zr1777   2.365       .  S
O265       C1018   1.266       .  A
C266       O1768   1.286   1_545  A
C266       O1017   1.270   1_545  A
C266        C341   1.477       .  S
Zr267       O268   2.435       .  S
Zr267       O269   2.438   1_565  S
Zr267       O279   2.346   1_565  S
Zr267       O277   2.375   1_565  S
Zr267      O1027   2.382       .  S
Zr267      O1028   2.362       .  S
O268        H288   0.990       .  S
O268        H293   0.990   1_565  S
O269        H289   0.990       .  S
Zr270       O271   2.437       .  S
Zr270       O272   2.436       .  S
Zr270       O276   2.383       .  S
Zr270       O275   2.357       .  S
Zr270       O280   2.372       .  S
Zr270       O278   2.372       .  S
O271        H287   0.990       .  S
O272        H286   0.990       .  S
O272        H296   0.990       .  S
Zr273      O1740   2.437       .  S
Zr273      O1746   2.369       .  S
Zr273      O1763   2.422       .  S
Zr273      O1769   2.383       .  S
Zr273       O276   2.408       .  S
Zr273       O278   2.441       .  S
Zr273      O1031   2.422       .  S
Zr274       O997   2.446       .  S
Zr274      O1008   2.408       .  S
Zr274       O275   2.404       .  S
Zr274       O280   2.391       .  S
Zr274      O1029   2.381       .  S
O275      Zr1019   2.386       .  S
O275        H283   0.964       .  S
O276      Zr1019   2.366       .  S
O277      Zr1026   2.384   1_545  S
O278        H282   0.956       .  S
O279      Zr1025   2.438   1_545  S
O279        H284   0.959       .  S
H281        O630   0.965       .  S
H291       O1000   0.989       .  S
H294        O625   0.991       .  S
C297        C298   1.416       .  A
C297        C302   1.399       .  A
C297        H304   1.079       .  S
C298        C299   1.413       .  A
C299        C300   1.397       .  A
C299        F306   1.358       .  S
C300        C301   1.400       .  A
C300        H305   1.084       .  S
C301        C302   1.399       .  A
C302        F303   1.358       .  S
C307        C308   1.415       .  A
C307        C312   1.388       .  A
C307        H314   1.080       .  S
C308        C309   1.409   1_554  A
C309        C686   1.394       .  A
C309        F316   1.356       .  S
C310        C311   1.409       .  A
C310        C685   1.389       .  A
C310        H315   1.083       .  S
C311        C688   1.395       .  A
C312        C687   1.396       .  A
C312        F313   1.356       .  S
C317        C318   1.403   1_545  A
C317        C322   1.384       .  A
C317        H324   1.083   1_545  S
C318        C319   1.404   1_565  A
C319        C320   1.386       .  A
C319        F326   1.358   1_545  S
C320        C321   1.406       .  A
C320        H325   1.083       .  S
C321        C322   1.404       .  A
C322        F323   1.356       .  S
C327        C328   1.410       .  A
C327        C332   1.398       .  A
C327        H334   1.079       .  S
C328        C329   1.412       .  A
C329        C330   1.371       .  A
C329        F336   1.360       .  S
C330        C331   1.390       .  A
C330        H711   1.085       .  S
C331        C332   1.397       .  A
C331        C616   1.432       .  S
C332        F333   1.357       .  S
H335        C706   1.085       .  S
C337        C338   1.403       .  A
C337        C342   1.391       .  A
C337        H344   1.080       .  S
C338        C339   1.421       .  A
C339        C340   1.391       .  A
C339        F346   1.357       .  S
C340        C341   1.395       .  A
C340        H345   1.082       .  S
C341        C342   1.412       .  A
C342       F1095   1.358       .  S
F343       C1094   1.358       .  S
C347        C348   1.398       .  A
C347        C352   1.399       .  A
C347        H354   1.080       .  S
C348        C349   1.423       .  A
C349        C350   1.394   1_554  A
C349        F356   1.359       .  S
C350        C351   1.395       .  A
C350        H731   1.084       .  S
C351        C352   1.414   1_556  A
C351        C622   1.480       .  S
C352        F353   1.354       .  S
H355        C726   1.083       .  S
C357        C358   1.406       .  A
C357        C362   1.390       .  A
C357        H364   1.084       .  S
C358        C359   1.413       .  A
C359        C360   1.393       .  A
C359        F366   1.356       .  S
C360        C361   1.402       .  A
C360        H365   1.082       .  S
C361        C362   1.407       .  A
C362        F363   1.356       .  S
C367        C368   1.405       .  A
C367        C372   1.390       .  A
C367        H374   1.084       .  S
C368        C369   1.407       .  A
C369        C370   1.391       .  A
C369        F376   1.357       .  S
C370        C371   1.403       .  A
C370       H1127   1.080       .  S
C371        C372   1.408       .  A
C371        C613   1.466   1_554  S
C372        F749   1.356   1_554  S
F373        C748   1.356       .  S
H375       C1122   1.082       .  S
C377        C378   1.552       .  S
C377        C383   1.546       .  S
C377        C381   1.541       .  S
C377        C744   1.516       .  S
C378        H385   1.086       .  S
C378        C379   1.352       .  D
C379        C380   1.548       .  S
C379        N574   1.463       .  S
C380        C384   1.626       .  S
C380        C382   1.610       .  S
C380        H386   1.110       .  S
C381        H387   1.077       .  S
C381        C382   1.342       .  D
C382        C424   1.569       .  S
C383        H388   1.085       .  S
C383        C384   1.363       .  D
C384        C390   1.603       .  S
C389        C419   1.612       .  S
C389        C391   1.522       .  S
C389        C393   1.520       .  S
C389        C392   1.627       .  S
C390        C394   1.516       .  S
C390        C396   1.518       .  S
C390        C395   1.617       .  S
C391        C399   1.380       .  A
C391        C394   1.396       .  A
C392       C1907   1.424   1_455  A
C392        C395   1.444       .  A
C393        C407   1.383       .  A
C393        C396   1.397       .  A
C394        C397   1.382       .  A
C395       C1905   1.420   1_455  A
C396        C404   1.378       .  A
C397        N398   1.346       .  A
C397        H410   1.081       .  S
N398        C466   1.429       .  S
N398        C399   1.344       .  A
C399        H400   1.079       .  S
C401       C1899   1.422       .  A
C401        N402   1.384       .  A
C401        H411   1.081       .  S
N402        C403   1.385       .  A
N402        N484   1.465       .  S
C403       C1896   1.423       .  A
C403        H409   1.082       .  S
C404        N405   1.340       .  A
C404        H406   1.079       .  S
N405        C548   1.428       .  S
N405        C407   1.346       .  A
C407        H408   1.080       .  S
C412        C413   1.548       .  S
C412        C418   1.552       .  S
C412        C416   1.548       .  S
C412        C734   1.525       .  S
C413        H420   1.086       .  S
C413        C414   1.348       .  D
C414        C415   1.559       .  S
C414        N597   1.470       .  S
C415        C419   1.628       .  S
C415        C417   1.617       .  S
C415        H421   1.110       .  S
C416        H422   1.079       .  S
C416        C417   1.350       .  D
C417        C518   1.587       .  S
C418        H423   1.085       .  S
C418        C419   1.367       .  D
C424        C426   1.511       .  S
C424        C428   1.559       .  S
C424        C427   1.637       .  S
C425        C511   1.509       .  S
C425        C429   1.498       .  S
C425        C431   1.516       .  S
C425        C430   1.548       .  S
C426        C434   1.362       .  A
C426        C429   1.368       .  A
C427        C438   1.435       .  A
C427        C430   1.423       .  A
C428        C442   1.392       .  A
C428        C431   1.377       .  A
C429        C432   1.362       .  A
C430        C436   1.386       .  A
C431        C439   1.369       .  A
C432        N433   1.340       .  A
C432        H445   1.076       .  S
N433        C461   1.416       .  S
N433        C434   1.344       .  A
C434        H435   1.064       .  S
C436       N1189   1.357   1_545  A
C436       H1198   1.078   1_545  S
N437       C1188   1.356       .  A
N437       C1190   1.390       .  A
N437        N531   1.445       .  S
C438       N1189   1.391   1_545  A
C438       H1196   1.081       .  S
C439        N440   1.349       .  A
C439        H441   1.070       .  S
N440        C449   1.464       .  S
N440        C442   1.373       .  A
C442        H443   1.076       .  S
H444       C1190   1.081       .  S
H446       C1188   1.077       .  S
C447        C448   1.539       .  S
C447        C453   1.575       .  S
C447        C451   1.534       .  S
C447        C724   1.531       .  S
C448        H455   1.087       .  S
C448        C449   1.347       .  D
C449        C450   1.573       .  S
C450        C454   1.628       .  S
C450        C452   1.603       .  S
C450        H456   1.109       .  S
C451        H457   1.082       .  S
C451        C452   1.349       .  D
C452        C566   1.582       .  S
C453        H458   1.083       .  S
C453        C454   1.382       .  D
C454        C471   1.638       .  S
C459        C460   1.536       .  S
C459        C465   1.550       .  S
C459        C463   1.567       .  S
C459        C714   1.511       .  S
C460        H467   1.088       .  S
C460        C461   1.332       .  D
C461        C462   1.514       .  S
C462        C466   1.521       .  S
C462        C464   1.551       .  S
C462        H468   1.111       .  S
C463        H469   1.082       .  S
C463        C464   1.375       .  D
C464        C588   1.533       .  S
C465        H470   1.084       .  S
C465        C466   1.360       .  D
C471        C473   1.522       .  S
C471        C475   1.528       .  S
C471        C474   1.625       .  S
C472        C560   1.631       .  S
C472        C476   1.524       .  S
C472        C478   1.515       .  S
C472        C477   1.623       .  S
C473        C481   1.375       .  A
C473        C476   1.405       .  A
C474        C485   1.423       .  A
C474        C477   1.447       .  A
C475        C489   1.383       .  A
C475        C478   1.406       .  A
C476        C479   1.380       .  A
C477        C483   1.423       .  A
C478        C486   1.372       .  A
C479        N480   1.348       .  A
C479        H492   1.077       .  S
N480        C513   1.433       .  S
N480        C481   1.343       .  A
C481        H482   1.079       .  S
C483        N484   1.384       .  A
C483        H493   1.082       .  S
N484        C485   1.384       .  A
C485        H491   1.081       .  S
C486        N487   1.340       .  A
C486        H488   1.080       .  S
N487        C501   1.430       .  S
N487        C489   1.348       .  A
C489        H490   1.080       .  S
C494        C495   1.542       .  S
C494        C500   1.547       .  S
C494        C498   1.557       .  S
C494        C704   1.501       .  S
C495        H502   1.087       .  S
C495        C496   1.342       .  D
C496        C497   1.523       .  S
C496        N581   1.424       .  S
C497        C501   1.521       .  S
C497        C499   1.557       .  S
C497        H503   1.112       .  S
C498        H504   1.079       .  S
C498        C499   1.372       .  D
C499        C519   1.531       .  S
C500        H505   1.086       .  S
C500        C501   1.352       .  D
C506        C507   1.550       .  S
C506        C512   1.558       .  S
C506        C510   1.527       .  S
C506        C697   1.494       .  S
C507        H514   1.086       .  S
C507        C508   1.352       .  D
C508        C509   1.529       .  S
C508        N604   1.432       .  S
C509        C513   1.520       .  S
C509        C511   1.557       .  S
C509        H515   1.112       .  S
C510        H516   1.079       .  S
C510        C511   1.349       .  D
C512        H517   1.084       .  S
C512        C513   1.360       .  D
C518        C520   1.516       .  S
C518        C522   1.557       .  S
C518        C521   1.639       .  S
C519        C523   1.508       .  S
C519        C525   1.527       .  S
C519        C524   1.551       .  S
C520        C528   1.365       .  A
C520        C523   1.375       .  A
C521        C532   1.434       .  A
C521        C524   1.427       .  A
C522        C536   1.393       .  A
C522        C525   1.378       .  A
C523        C526   1.366       .  A
C524        C530   1.387       .  A
C525        C533   1.375       .  A
C526        N527   1.343       .  A
C526        H539   1.077       .  S
N527        C543   1.426       .  S
N527        C528   1.347       .  A
C528        H529   1.064       .  S
C530        N531   1.360       .  A
C530        H540   1.080       .  S
N531        C532   1.390       .  A
C532        H538   1.081       .  S
C533        N534   1.354       .  A
C533        H535   1.068       .  S
N534        C555   1.473       .  S
N534        C536   1.375       .  A
C536        H537   1.076       .  S
C541        C542   1.545       .  S
C541        C547   1.548       .  S
C541        C545   1.561       .  S
C541        C684   1.508       .  S
C542        H549   1.088       .  S
C542        C543   1.336       .  D
C543        C544   1.518       .  S
C544        C548   1.520       .  S
C544        C546   1.558       .  S
C544        H550   1.112       .  S
C545        H551   1.080       .  S
C545        C546   1.370       .  D
C546        C565   1.529       .  S
C547        H552   1.085       .  S
C547        C548   1.355       .  D
C553        C554   1.546       .  S
C553        C559   1.562       .  S
C553        C557   1.554       .  S
C553        C674   1.543       .  S
C554        H561   1.086       .  S
C554        C555   1.348       .  D
C555        C556   1.582       .  S
C556        C560   1.623       .  S
C556        C558   1.608       .  S
C556        H562   1.108       .  S
C557        H563   1.080       .  S
C557        C558   1.358       .  D
C558        C589   1.595       .  S
C559        H564   1.085       .  S
C559        C560   1.373       .  D
C565        C567   1.534       .  S
C565        C569   1.527       .  S
C565        C568   1.532       .  S
C566        C570   1.555       .  S
C566        C572   1.494       .  S
C566        C571   1.655       .  S
C567        C575   1.374       .  A
C567        C570   1.383       .  A
C568        C571   1.423       .  A
C569        C583   1.372       .  A
C569        C572   1.379       .  A
C570        C573   1.401       .  A
C572        C580   1.356       .  A
C573        N574   1.363       .  A
C573        H586   1.070       .  S
N574        C575   1.350       .  A
C575        H576   1.078       .  S
C577        N578   1.394       .  A
C577        H587   1.081       .  S
N578        C579   1.357       .  A
N578        N601   1.448       .  S
C579        H585   1.080       .  S
C580        N581   1.343       .  A
C580        H582   1.062       .  S
N581        C583   1.346       .  A
C583        H584   1.079       .  S
C588        C590   1.533       .  S
C588        C592   1.530       .  S
C588        C591   1.531       .  S
C589        C593   1.559       .  S
C589        C595   1.505       .  S
C589        C594   1.659       .  S
C590        C598   1.376       .  A
C590        C593   1.378       .  A
C591        C602   1.381       .  A
C591        C594   1.425       .  A
C592        C606   1.375       .  A
C592        C595   1.386       .  A
C593        C596   1.403       .  A
C594        C600   1.442       .  A
C595        C603   1.365       .  A
C596        N597   1.364       .  A
C596        H609   1.066       .  S
N597        C598   1.354       .  A
C598        H599   1.077       .  S
C600        N601   1.395       .  A
C600        H610   1.081       .  S
N601        C602   1.357       .  A
C602        H608   1.081       .  S
C603        N604   1.347       .  A
C603        H605   1.066       .  S
N604        C606   1.346       .  A
C606        H607   1.079       .  S
O611       Zr623   2.407       .  S
O611       C2117   1.263       .  A
O612      Zr2153   2.431       .  S
O612       C1365   1.280       .  A
C613       O2115   1.263       .  A
C613       O1364   1.278       .  A
O614       Zr626   2.395       .  S
O614        C616   1.279       .  A
O615       Zr650   2.406       .  S
O615        C616   1.283   1_556  A
O617       Zr626   2.460       .  S
O617       C2123   1.285       .  A
O618      Zr2153   2.381       .  S
O618        C619   1.273   1_556  A
C619       O2121   1.289       .  A
C619        C687   1.476       .  S
O620       Zr623   2.416       .  S
O620        C622   1.275       .  A
O621      Zr1402   2.442   1_545  S
O621        C622   1.287       .  A
Zr623       O625   2.444       .  S
Zr623      O1381   2.378   1_545  S
Zr623      O1382   2.363   1_545  S
Zr623       O653   2.371       .  S
Zr623       O655   2.364       .  S
O624       H1419   0.990       .  S
O625        H666   0.989       .  S
Zr626       O628   2.435       .  S
Zr626       O630   2.380   1_554  S
Zr626       O629   2.346   1_554  S
Zr626       O654   2.349   1_554  S
Zr626       O656   2.374   1_554  S
O627        H668   0.990       .  S
O627        H671   0.990       .  S
O628        H661   0.990   1_554  S
O629      Zr1375   2.378       .  S
O629       Zr649   2.399       .  S
O630      Zr1375   2.368       .  S
O630       Zr650   2.397       .  S
O631       Zr643   2.414       .  S
O631        C633   1.285       .  A
O632      Zr1402   2.395       .  S
O632        C633   1.284       .  A
C633        C694   1.459       .  S
O634       Zr646   2.405       .  S
O634       C2140   1.264       .  A
O635      Zr2153   2.430       .  S
O635        C636   1.276       .  A
C636       O2138   1.261       .  A
C636        C737   1.462       .  S
O637       Zr646   2.423       .  S
O637        C639   1.276       .  A
O638       Zr650   2.445       .  S
O638        C639   1.285       .  A
C639        C677   1.477       .  S
O640       Zr643   2.456       .  S
O640       C2146   1.284   1_565  A
O641      Zr2153   2.373       .  S
O641       C1394   1.268       .  A
C642       O2144   1.286       .  A
C642       O1393   1.269       .  A
C642        C717   1.473   1_565  S
Zr643       O644   2.436       .  S
Zr643       O645   2.439   1_565  S
Zr643      O1403   2.384       .  S
Zr643      O1404   2.368       .  S
Zr643       O655   2.350   1_565  S
Zr643       O653   2.372   1_565  S
O644        H664   0.990       .  S
O644        H669   0.990   1_565  S
O645        H665   0.990       .  S
Zr646       O647   2.437       .  S
Zr646       O648   2.437       .  S
Zr646       O652   2.382       .  S
Zr646       O651   2.356       .  S
Zr646       O656   2.371       .  S
Zr646       O654   2.372       .  S
O647        H663   0.990       .  S
O648        H662   0.990       .  S
O648        H672   0.990       .  S
Zr649      O2116   2.437       .  S
Zr649      O2122   2.380       .  S
Zr649      O2139   2.430       .  S
Zr649      O2145   2.377       .  S
Zr649       O652   2.411       .  S
Zr649       O654   2.431       .  S
Zr649      O1407   2.436       .  S
Zr650      O1373   2.455       .  S
Zr650      O1384   2.399       .  S
Zr650       O651   2.405       .  S
Zr650      O1405   2.387       .  S
Zr650       O656   2.391       .  S
O651      Zr1395   2.382       .  S
O651        H659   0.965       .  S
O652      Zr1395   2.366       .  S
O653      Zr1402   2.386   1_545  S
O654        H658   0.963       .  S
O655      Zr1401   2.434   1_545  S
O655        H660   0.959       .  S
H667       O1376   0.990       .  S
C673        C674   1.412       .  A
C673        C678   1.402       .  A
C673        H680   1.080       .  S
C674        C675   1.416       .  A
C675        C676   1.400       .  A
C675        F682   1.358       .  S
C676        C677   1.402       .  A
C676        H681   1.084       .  S
C677        C678   1.404       .  A
C678        F679   1.357       .  S
C683        C684   1.419       .  A
C683        C688   1.389       .  A
C683        H690   1.082       .  S
C684        C685   1.405       .  A
C685        F692   1.354       .  S
C686        C687   1.410   1_556  A
C686        H691   1.083       .  S
C688        F689   1.358       .  S
C693        C694   1.405   1_545  A
C693        C698   1.382       .  A
C693        H700   1.083   1_545  S
C694        C695   1.404   1_565  A
C695        C696   1.386       .  A
C695        F702   1.358   1_545  S
C696        C697   1.407       .  A
C696        H701   1.083       .  S
C697        C698   1.401       .  A
C698        F699   1.356       .  S
C703        C704   1.407       .  A
C703        C708   1.399       .  A
C703        H710   1.079       .  S
C704        C705   1.414       .  A
C705        C706   1.373       .  A
C705        F712   1.360       .  S
C706        C707   1.389       .  A
C707        C708   1.400       .  A
C708        F709   1.357       .  S
C713        C714   1.404       .  A
C713        C718   1.392       .  A
C713        H720   1.081       .  S
C714        C715   1.423       .  A
C715        C716   1.390       .  A
C715        F722   1.356       .  S
C716        C717   1.393       .  A
C716        H721   1.082       .  S
C717        C718   1.411       .  A
C718       F1471   1.358       .  S
F719       C1470   1.358       .  S
C723        C724   1.400       .  A
C723        C728   1.402       .  A
C723        H730   1.081       .  S
C724        C725   1.424       .  A
C725        C726   1.396       .  A
C725        F732   1.359       .  S
C726        C727   1.395       .  A
C727        C728   1.417       .  A
C728        F729   1.355       .  S
C733        C734   1.409       .  A
C733        C738   1.392       .  A
C733        H740   1.084       .  S
C734        C735   1.409       .  A
C735        C736   1.393       .  A
C735        F742   1.356       .  S
C736        C737   1.401       .  A
C736        H741   1.080       .  S
C737        C738   1.405       .  A
C738        F739   1.358       .  S
C743        C744   1.404       .  A
C743        C748   1.389       .  A
C743        H750   1.084       .  S
C744        C745   1.409       .  A
C745        C746   1.390       .  A
C745        F752   1.357       .  S
C746        C747   1.402       .  A
C746       H1503   1.081       .  S
C747        C748   1.407       .  A
H751       C1498   1.081       .  S
C753        C754   1.548       .  S
C753        C759   1.544       .  S
C753        C757   1.545       .  S
C753       C1120   1.514       .  S
C754        H761   1.087       .  S
C754        C755   1.348       .  D
C755        C756   1.552       .  S
C755        N950   1.464       .  S
C756        C760   1.623       .  S
C756        C758   1.614       .  S
C756        H762   1.110       .  S
C757        H763   1.078       .  S
C757        C758   1.347       .  D
C758        C800   1.576       .  S
C759        H764   1.085       .  S
C759        C760   1.361       .  D
C760        C766   1.597       .  S
C765        C795   1.608       .  S
C765        C767   1.516       .  S
C765        C769   1.516       .  S
C765        C768   1.632       .  S
C766        C770   1.514       .  S
C766        C772   1.519       .  S
C766        C771   1.617       .  S
C767        C775   1.377       .  A
C767        C770   1.393       .  A
C768       C2283   1.427   1_455  A
C768        C771   1.443       .  A
C769        C783   1.380       .  A
C769        C772   1.395       .  A
C770        C773   1.379       .  A
C771       C2281   1.422   1_455  A
C772        C780   1.378       .  A
C773        N774   1.346       .  A
C773        H786   1.079       .  S
N774        C842   1.425       .  S
N774        C775   1.340       .  A
C775        H776   1.080       .  S
C777       C2275   1.420       .  A
C777        N778   1.383       .  A
C777        H787   1.081       .  S
N778        C779   1.383       .  A
N778        N860   1.462       .  S
C779       C2272   1.420       .  A
C779        H785   1.082       .  S
C780        N781   1.341       .  A
C780        H782   1.079       .  S
N781        C924   1.427       .  S
N781        C783   1.345       .  A
C783        H784   1.080       .  S
C788        C789   1.544       .  S
C788        C794   1.551       .  S
C788        C792   1.545       .  S
C788       C1110   1.521       .  S
C789        H796   1.087       .  S
C789        C790   1.347       .  D
C790        C791   1.556       .  S
C790        N973   1.465       .  S
C791        C795   1.628       .  S
C791        C793   1.610       .  S
C791        H797   1.110       .  S
C792        H798   1.077       .  S
C792        C793   1.349       .  D
C793        C894   1.576       .  S
C794        H799   1.085       .  S
C794        C795   1.366       .  D
C800        C802   1.515       .  S
C800        C804   1.556       .  S
C800        C803   1.639       .  S
C801        C887   1.515       .  S
C801        C805   1.505       .  S
C801        C807   1.517       .  S
C801        C806   1.553       .  S
C802        C810   1.365       .  A
C802        C805   1.375       .  A
C803        C814   1.438       .  A
C803        C806   1.424       .  A
C804        C818   1.392       .  A
C804        C807   1.374       .  A
C805        C808   1.366       .  A
C806        C812   1.391       .  A
C807        C815   1.371       .  A
C808        N809   1.343       .  A
C808        H821   1.076       .  S
N809        C837   1.423       .  S
N809        C810   1.345       .  A
C810        H811   1.067       .  S
N813        N907   1.442       .  S
C815        N816   1.351       .  A
C815        H817   1.068       .  S
N816        C825   1.468       .  S
N816        C818   1.374       .  A
C818        H819   1.076       .  S
C823        C824   1.540       .  S
C823        C829   1.570       .  S
C823        C827   1.533       .  S
C823       C1100   1.523       .  S
C824        H831   1.087       .  S
C824        C825   1.350       .  D
C825        C826   1.576       .  S
C826        C830   1.623       .  S
C826        C828   1.602       .  S
C826        H832   1.108       .  S
C827        H833   1.082       .  S
C827        C828   1.347       .  D
C828        C942   1.576       .  S
C829        H834   1.082       .  S
C829        C830   1.374       .  D
C830        C847   1.625       .  S
C835        C836   1.546       .  S
C835        C841   1.543       .  S
C835        C839   1.561       .  S
C835       C1090   1.506       .  S
C836        H843   1.087       .  S
C836        C837   1.337       .  D
C837        C838   1.515       .  S
C838        C842   1.527       .  S
C838        C840   1.553       .  S
C838        H844   1.111       .  S
C839        H845   1.079       .  S
C839        C840   1.370       .  D
C840        C964   1.533       .  S
C841        H846   1.084       .  S
C841        C842   1.356       .  D
C847        C849   1.519       .  S
C847        C851   1.526       .  S
C847        C850   1.620       .  S
C848        C936   1.619       .  S
C848        C852   1.521       .  S
C848        C854   1.518       .  S
C848        C853   1.620       .  S
C849        C857   1.375       .  A
C849        C852   1.400       .  A
C850        C861   1.421       .  A
C850        C853   1.445       .  A
C851        C865   1.383       .  A
C851        C854   1.405       .  A
C852        C855   1.380       .  A
C853        C859   1.419       .  A
C854        C862   1.375       .  A
C855        N856   1.348       .  A
C855        H868   1.076       .  S
N856        C889   1.435       .  S
N856        C857   1.344       .  A
C857        H858   1.080       .  S
C859        N860   1.382       .  A
C859        H869   1.081       .  S
N860        C861   1.383       .  A
C861        H867   1.082       .  S
C862        N863   1.342       .  A
C862        H864   1.080       .  S
N863        C877   1.431       .  S
N863        C865   1.347       .  A
C865        H866   1.080       .  S
C870        C871   1.540       .  S
C870        C876   1.550       .  S
C870        C874   1.557       .  S
C870       C1080   1.502       .  S
C871        H878   1.087       .  S
C871        C872   1.339       .  D
C872        C873   1.522       .  S
C872        N957   1.421       .  S
C873        C877   1.519       .  S
C873        C875   1.552       .  S
C873        H879   1.112       .  S
C874        H880   1.079       .  S
C874        C875   1.375       .  D
C875        C895   1.526       .  S
C876        H881   1.086       .  S
C876        C877   1.354       .  D
C882        C883   1.549       .  S
C882        C888   1.556       .  S
C882        C886   1.530       .  S
C882       C1073   1.497       .  S
C883        H890   1.086       .  S
C883        C884   1.350       .  D
C884        C885   1.526       .  S
C884        N980   1.427       .  S
C885        C889   1.527       .  S
C885        C887   1.554       .  S
C885        H891   1.112       .  S
C886        H892   1.078       .  S
C886        C887   1.351       .  D
C888        H893   1.084       .  S
C888        C889   1.362       .  D
C894        C896   1.516       .  S
C894        C898   1.557       .  S
C894        C897   1.629       .  S
C895        C899   1.513       .  S
C895        C901   1.528       .  S
C895        C900   1.546       .  S
C896        C904   1.365       .  A
C896        C899   1.376       .  A
C897        C908   1.430       .  A
C897        C900   1.424       .  A
C898        C912   1.393       .  A
C898        C901   1.378       .  A
C899        C902   1.370       .  A
C900        C906   1.383       .  A
C901        C909   1.375       .  A
C902        N903   1.345       .  A
C902        H915   1.077       .  S
N903        C919   1.428       .  S
N903        C904   1.346       .  A
C904        H905   1.065       .  S
C906        N907   1.358       .  A
C906        H916   1.079       .  S
N907        C908   1.388       .  A
C908        H914   1.081       .  S
C909        N910   1.354       .  A
C909        H911   1.069       .  S
N910        C931   1.472       .  S
N910        C912   1.373       .  A
C912        H913   1.077       .  S
C917        C918   1.548       .  S
C917        C923   1.549       .  S
C917        C921   1.559       .  S
C917       C1060   1.508       .  S
C918        H925   1.087       .  S
C918        C919   1.338       .  D
C919        C920   1.519       .  S
C920        C924   1.520       .  S
C920        C922   1.557       .  S
C920        H926   1.112       .  S
C921        H927   1.080   1_554  S
C921        C922   1.369       .  D
C922        C941   1.527       .  S
C923        H928   1.085       .  S
C923        C924   1.355       .  D
C929        C930   1.548       .  S
C929        C935   1.559       .  S
C929        C933   1.555       .  S
C929       C1050   1.540       .  S
C930        H937   1.086       .  S
C930        C931   1.351       .  D
C931        C932   1.576       .  S
C932        C936   1.618       .  S
C932        C934   1.605       .  S
C932        H938   1.108       .  S
C933        H939   1.079       .  S
C933        C934   1.357       .  D
C934        C965   1.595       .  S
C935        H940   1.085       .  S
C935        C936   1.370       .  D
C941        C943   1.535       .  S
C941        C945   1.527       .  S
C941        C944   1.533       .  S
C942        C946   1.551       .  S
C942        C948   1.492       .  S
C942        C947   1.655       .  S
C943        C951   1.373       .  A
C943        C946   1.381       .  A
C944       C1331   1.384   1_554  A
C944        C947   1.422       .  A
C945        C959   1.372       .  A
C945        C948   1.379       .  A
C946        C949   1.401       .  A
C947       C1329   1.440   1_554  A
C948        C956   1.353       .  A
C949        N950   1.361       .  A
C949        H962   1.069       .  S
N950        C951   1.353       .  A
C951        H952   1.077       .  S
C953       C1323   1.441       .  A
C953        N954   1.393       .  A
C953        H963   1.081       .  S
N954        C955   1.360       .  A
N954        N977   1.448       .  S
C955       C1320   1.385       .  A
C955        H961   1.081       .  S
C956        N957   1.341       .  A
C956        H958   1.062       .  S
N957        C959   1.346       .  A
C959        H960   1.079       .  S
C964        C966   1.525       .  S
C964        C968   1.531       .  S
C964        C967   1.532       .  S
C965        C969   1.559       .  S
C965        C971   1.504       .  S
C965        C970   1.658       .  S
C966        C974   1.370       .  A
C966        C969   1.377       .  A
C967        C978   1.382       .  A
C967        C970   1.424       .  A
C968        C982   1.374       .  A
C968        C971   1.391       .  A
C969        C972   1.404       .  A
C970        C976   1.443       .  A
C971        C979   1.364       .  A
C972        N973   1.364       .  A
C972        H985   1.067       .  S
N973        C974   1.349       .  A
C974        H975   1.076       .  S
C976        N977   1.395       .  A
C976        H986   1.081       .  S
N977        C978   1.356       .  A
C978        H984   1.079       .  S
C979        N980   1.344       .  A
C979        H981   1.069       .  S
N980        C982   1.346       .  A
C982        H983   1.079       .  S
O987       Zr999   2.406       .  S
O987       C2493   1.264       .  A
O988      Zr2529   2.430   1_545  S
C989       O2491   1.261       .  A
C989       C1499   1.465       .  S
O990      Zr1002   2.415       .  S
O990        C992   1.283       .  A
O991      Zr1026   2.400       .  S
O991        C992   1.282       .  A
C992       C1459   1.438       .  S
O993      Zr1002   2.462       .  S
O993       C2499   1.284       .  A
O994      Zr2529   2.375       .  S
O994        C995   1.269       .  A
C995       O2497   1.286       .  A
C995       C1063   1.469       .  S
O996       Zr999   2.406       .  S
O996        C998   1.275       .  A
O997        C998   1.289       .  A
C998       C1479   1.478       .  S
Zr999      O1376   2.435       .  S
Zr999      O1001   2.438       .  S
Zr999      O1029   2.368       .  S
Zr999      O1031   2.364       .  S
O1000     Zr1375   2.435   1_554  S
O1001      H1042   0.990       .  S
O1001      H1422   0.988       .  S
Zr1002     O1379   2.439       .  S
Zr1002     O1004   2.436       .  S
Zr1002     O1006   2.378       .  S
Zr1002     O1005   2.356       .  S
Zr1002     O1030   2.358       .  S
Zr1002     O1032   2.372       .  S
O1003     Zr1378   2.438   1_554  S
O1003      H1044   0.990       .  S
O1003      H1047   0.990       .  S
O1004      H1037   0.989       .  S
O1005     Zr1025   2.408       .  S
O1006     Zr1026   2.393       .  S
O1006      H1409   0.966   1_565  S
O1007     Zr1019   2.407       .  S
O1007      C1009   1.283       .  A
O1008      C1009   1.286       .  A
C1009      C1070   1.461       .  S
O1010     Zr1022   2.410       .  S
O1010      C2516   1.264       .  A
O1011     Zr2529   2.433       .  S
O1011      C1012   1.280       .  A
C1012      O2514   1.265       .  A
C1012      C1113   1.465       .  S
O1013     Zr1022   2.418       .  S
O1013      C1015   1.276       .  A
O1014     Zr1026   2.445       .  S
O1014      C1015   1.286       .  A
C1015      C1053   1.473       .  S
O1016     Zr1019   2.452       .  S
O1016      C2522   1.285       .  A
O1017     Zr2529   2.384       .  S
C1018      O2520   1.288       .  A
C1018      C1093   1.469       .  S
Zr1019     O1020   2.437       .  S
Zr1019     O1021   2.438       .  S
Zr1019     O1031   2.350       .  S
Zr1019     O1029   2.363       .  S
O1020      H1040   0.990       .  S
O1020      H1045   0.990       .  S
O1021      H1041   0.990       .  S
Zr1022     O1023   2.437       .  S
Zr1022     O1024   2.436       .  S
Zr1022     O1028   2.382       .  S
Zr1022     O1027   2.356       .  S
Zr1022     O1032   2.374       .  S
Zr1022     O1030   2.362       .  S
O1023      H1039   0.990       .  S
O1024      H1038   0.990       .  S
O1024      H1048   0.990       .  S
Zr1025     O2492   2.435   1_565  S
Zr1025     O2498   2.376       .  S
Zr1025     O2515   2.435       .  S
Zr1025     O2521   2.376       .  S
Zr1025     O1028   2.411       .  S
Zr1025     O1030   2.441       .  S
Zr1026     O1027   2.406       .  S
Zr1026     O1032   2.389       .  S
O1027      H1035   0.964       .  S
O1030      H1034   0.953       .  S
O1031      H1036   0.960       .  S
H1033      O1382   0.966   1_545  S
H1046      O1377   0.990       .  S
C1049      C1050   1.413       .  A
C1049      C1054   1.399       .  A
C1049      H1056   1.079       .  S
C1050      C1051   1.415       .  A
C1051      C1052   1.401       .  A
C1051      F1058   1.358       .  S
C1052      C1053   1.402       .  A
C1052      H1057   1.084       .  S
C1053      C1054   1.400       .  A
C1054      F1055   1.357       .  S
C1059      C1060   1.418       .  A
C1059      C1064   1.389       .  A
C1059      H1066   1.080       .  S
C1060      C1061   1.406   1_554  A
C1061      C1438   1.389       .  A
C1061      F1068   1.355       .  S
C1062      C1437   1.388       .  A
C1062      C1063   1.409       .  A
C1062      H1067   1.083       .  S
C1063      C1440   1.395       .  A
C1064      C1439   1.394       .  A
C1064      F1065   1.355       .  S
C1069      C1070   1.407       .  A
C1069      C1074   1.385       .  A
C1069      H1076   1.083       .  S
C1070      C1071   1.401       .  A
C1071      C1072   1.385       .  A
C1071      F1078   1.358       .  S
C1072      C1073   1.408       .  A
C1072      H1077   1.083       .  S
C1073      C1074   1.402       .  A
C1074      F1075   1.356       .  S
C1079      C1080   1.408       .  A
C1079      C1084   1.402       .  A
C1079      H1086   1.080       .  S
C1080      C1081   1.415       .  A
C1081      C1082   1.372       .  A
C1081      F1088   1.360       .  S
C1082      C1083   1.387       .  A
C1082      H1463   1.085       .  S
C1083      C1084   1.401       .  A
C1083      C1368   1.436       .  S
C1084      F1085   1.357       .  S
H1087      C1458   1.085       .  S
C1089      C1090   1.403       .  A
C1089      C1094   1.388       .  A
C1089      H1096   1.080       .  S
C1090      C1091   1.420       .  A
C1091      C1092   1.388       .  A
C1091      F1098   1.356       .  S
C1092      C1093   1.392       .  A
C1092      H1097   1.079       .  S
C1093      C1094   1.412       .  A
C1099      C1100   1.399       .  A
C1099      C1104   1.397       .  A
C1099      H1106   1.079       .  S
C1100      C1101   1.421       .  A
C1101      C1102   1.395   1_554  A
C1101      F1108   1.359       .  S
C1102      C1103   1.395       .  A
C1102      H1483   1.083       .  S
C1103      C1104   1.415   1_556  A
C1103      C1374   1.479       .  S
C1104      F1105   1.355       .  S
H1107      C1478   1.083       .  S
C1109      C1110   1.409       .  A
C1109      C1114   1.392       .  A
C1109      H1116   1.084       .  S
C1110      C1111   1.408       .  A
C1111      C1112   1.391       .  A
C1111      F1118   1.355       .  S
C1112      C1113   1.401       .  A
C1112      H1117   1.081       .  S
C1113      C1114   1.406       .  A
C1114      F1115   1.357       .  S
C1119      C1120   1.407       .  A
C1119      C1124   1.390       .  A
C1119      H1126   1.084       .  S
C1120      C1121   1.406       .  A
C1121      C1122   1.389       .  A
C1121      F1128   1.355       .  S
C1122      C1123   1.401       .  A
C1123      C1124   1.407       .  A
C1123      C1365   1.460   1_554  S
C1124      F1501   1.358   1_554  S
F1125      C1500   1.357       .  S
C1129      C1130   1.550       .  S
C1129      C1135   1.540       .  S
C1129      C1133   1.546       .  S
C1129      C1496   1.516       .  S
C1130      H1137   1.086       .  S
C1130      C1131   1.351       .  D
C1131      C1132   1.553       .  S
C1131      N1326   1.467       .  S
C1132      C1136   1.621       .  S
C1132      C1134   1.606       .  S
C1132      H1138   1.110       .  S
C1133      H1139   1.078       .  S
C1133      C1134   1.350       .  D
C1134      C1176   1.571       .  S
C1135      H1140   1.085       .  S
C1135      C1136   1.360       .  D
C1136      C1142   1.590       .  S
C1141      C1171   1.609       .  S
C1141      C1143   1.520       .  S
C1141      C1145   1.516       .  S
C1141      C1144   1.632       .  S
C1142      C1146   1.514       .  S
C1142      C1148   1.514       .  S
C1142      C1147   1.611       .  S
C1143      C1151   1.378       .  A
C1143      C1146   1.394       .  A
C1144      C2659   1.427   1_455  A
C1144      C1147   1.442       .  A
C1145      C1159   1.379       .  A
C1145      C1148   1.394       .  A
C1146      C1149   1.379       .  A
C1147      C2657   1.418   1_455  A
C1148      C1156   1.376       .  A
C1149      N1150   1.345       .  A
C1149      H1162   1.079       .  S
N1150      C1218   1.427       .  S
N1150      C1151   1.342       .  A
C1151      H1152   1.080       .  S
C1153      C2651   1.419       .  A
C1153      N1154   1.382       .  A
C1153      H1163   1.081       .  S
N1154      C1155   1.385       .  A
N1154      N1236   1.463       .  S
C1155      C2648   1.423       .  A
C1155      H1161   1.082       .  S
C1156      N1157   1.338       .  A
C1156      H1158   1.078       .  S
N1157      C1300   1.424       .  S
N1157      C1159   1.345       .  A
C1159      H1160   1.079       .  S
C1164      C1165   1.540       .  S
C1164      C1170   1.554       .  S
C1164      C1168   1.548       .  S
C1164      C1486   1.521       .  S
C1165      H1172   1.088       .  S
C1165      C1166   1.345       .  D
C1166      C1167   1.556       .  S
C1166      N1349   1.463       .  S
C1167      C1171   1.626       .  S
C1167      C1169   1.614       .  S
C1167      H1173   1.110       .  S
C1168      H1174   1.076       .  S
C1168      C1169   1.350       .  D
C1169      C1270   1.584       .  S
C1170      H1175   1.085       .  S
C1170      C1171   1.366       .  D
C1176      C1178   1.520       .  S
C1176      C1180   1.555       .  S
C1176      C1179   1.630       .  S
C1177      C1263   1.515       .  S
C1177      C1181   1.506       .  S
C1177      C1183   1.515       .  S
C1177      C1182   1.551       .  S
C1178      C1186   1.367       .  A
C1178      C1181   1.378       .  A
C1179      C1190   1.433       .  A
C1179      C1182   1.422       .  A
C1180      C1194   1.391       .  A
C1180      C1183   1.374       .  A
C1181      C1184   1.366       .  A
C1182      C1188   1.387       .  A
C1183      C1191   1.369       .  A
C1184      N1185   1.342       .  A
C1184      H1197   1.075       .  S
N1185      C1213   1.425       .  S
N1185      C1186   1.347       .  A
C1186      H1187   1.067       .  S
N1189      N1283   1.446       .  S
C1191      N1192   1.349       .  A
C1191      H1193   1.068       .  S
N1192      C1201   1.464       .  S
N1192      C1194   1.373       .  A
C1194      H1195   1.077       .  S
C1199      C1200   1.539       .  S
C1199      C1205   1.572       .  S
C1199      C1203   1.533       .  S
C1199      C1476   1.523       .  S
C1200      H1207   1.086       .  S
C1200      C1201   1.348       .  D
C1201      C1202   1.573       .  S
C1202      C1206   1.627       .  S
C1202      C1204   1.607       .  S
C1202      H1208   1.109       .  S
C1203      H1209   1.083       .  S
C1203      C1204   1.347       .  D
C1204      C1318   1.583       .  S
C1205      H1210   1.083       .  S
C1205      C1206   1.377       .  D
C1206      C1223   1.634       .  S
C1211      C1212   1.547       .  S
C1211      C1217   1.546       .  S
C1211      C1215   1.560       .  S
C1211      C1466   1.507       .  S
C1212      H1219   1.087       .  S
C1212      C1213   1.337       .  D
C1213      C1214   1.515       .  S
C1214      C1218   1.527       .  S
C1214      C1216   1.555       .  S
C1214      H1220   1.111       .  S
C1215      H1221   1.080       .  S
C1215      C1216   1.370       .  D
C1216      C1340   1.531       .  S
C1217      H1222   1.083       .  S
C1217      C1218   1.356       .  D
C1223      C1225   1.522       .  S
C1223      C1227   1.524       .  S
C1223      C1226   1.628       .  S
C1224      C1312   1.626       .  S
C1224      C1228   1.523       .  S
C1224      C1230   1.519       .  S
C1224      C1229   1.618       .  S
C1225      C1233   1.377       .  A
C1225      C1228   1.403       .  A
C1226      C1237   1.424       .  A
C1226      C1229   1.447       .  A
C1227      C1241   1.381       .  A
C1227      C1230   1.404       .  A
C1228      C1231   1.380       .  A
C1229      C1235   1.419       .  A
C1230      C1238   1.375       .  A
C1231      N1232   1.348       .  A
C1231      H1244   1.077       .  S
N1232      C1265   1.436       .  S
N1232      C1233   1.345       .  A
C1233      H1234   1.080       .  S
C1235      N1236   1.382       .  A
C1235      H1245   1.081       .  S
N1236      C1237   1.386       .  A
C1237      H1243   1.082       .  S
C1238      N1239   1.343       .  A
C1238      H1240   1.080       .  S
N1239      C1253   1.433       .  S
N1239      C1241   1.347       .  A
C1241      H1242   1.079       .  S
C1246      C1247   1.539       .  S
C1246      C1252   1.552       .  S
C1246      C1250   1.557       .  S
C1246      C1456   1.506       .  S
C1247      H1254   1.087       .  S
C1247      C1248   1.340       .  D
C1248      C1249   1.525       .  S
C1248      N1333   1.423       .  S
C1249      C1253   1.522       .  S
C1249      C1251   1.554       .  S
C1249      H1255   1.112       .  S
C1250      H1256   1.078       .  S
C1250      C1251   1.373       .  D
C1251      C1271   1.533       .  S
C1252      H1257   1.086       .  S
C1252      C1253   1.356       .  D
C1258      C1259   1.551       .  S
C1258      C1264   1.555       .  S
C1258      C1262   1.531       .  S
C1258      C1449   1.501       .  S
C1259      H1266   1.086       .  S
C1259      C1260   1.350       .  D
C1260      C1261   1.526       .  S
C1260      N1356   1.428       .  S
C1261      C1265   1.527       .  S
C1261      C1263   1.552       .  S
C1261      H1267   1.112       .  S
C1262      H1268   1.077       .  S
C1262      C1263   1.355       .  D
C1264      H1269   1.084       .  S
C1264      C1265   1.359       .  D
C1270      C1272   1.516       .  S
C1270      C1274   1.554       .  S
C1270      C1273   1.633       .  S
C1271      C1275   1.511       .  S
C1271      C1277   1.528       .  S
C1271      C1276   1.553       .  S
C1272      C1280   1.365       .  A
C1272      C1275   1.379       .  A
C1273      C1284   1.432       .  A
C1273      C1276   1.426       .  A
C1274      C1288   1.391       .  A
C1274      C1277   1.378       .  A
C1275      C1278   1.369       .  A
C1276      C1282   1.388       .  A
C1277      C1285   1.375       .  A
C1278      N1279   1.344       .  A
C1278      H1291   1.076       .  S
N1279      C1295   1.427       .  S
N1279      C1280   1.346       .  A
C1280      H1281   1.065       .  S
C1282      N1283   1.361       .  A
C1282      H1292   1.079       .  S
N1283      C1284   1.389       .  A
C1284      H1290   1.081       .  S
C1285      N1286   1.355       .  A
C1285      H1287   1.067       .  S
N1286      C1307   1.470       .  S
N1286      C1288   1.373       .  A
C1288      H1289   1.077       .  S
C1293      C1294   1.549       .  S
C1293      C1299   1.545       .  S
C1293      C1297   1.560       .  S
C1293      C1436   1.506       .  S
C1294      H1301   1.087       .  S
C1294      C1295   1.338       .  D
C1295      C1296   1.517       .  S
C1296      C1300   1.522       .  S
C1296      C1298   1.558       .  S
C1296      H1302   1.112       .  S
C1297      H1303   1.080       .  S
C1297      C1298   1.368       .  D
C1298      C1317   1.528       .  S
C1299      H1304   1.085       .  S
C1299      C1300   1.353       .  D
C1305      C1306   1.547       .  S
C1305      C1311   1.561       .  S
C1305      C1309   1.549       .  S
C1305      C1426   1.537       .  S
C1306      H1313   1.085       .  S
C1306      C1307   1.348       .  D
C1307      C1308   1.577       .  S
C1308      C1312   1.620       .  S
C1308      C1310   1.610       .  S
C1308      H1314   1.108       .  S
C1309      H1315   1.080       .  S
C1309      C1310   1.354       .  D
C1310      C1341   1.592       .  S
C1311      H1316   1.085       .  S
C1311      C1312   1.372       .  D
C1317      C1319   1.532       .  S
C1317      C1321   1.529       .  S
C1317      C1320   1.535       .  S
C1318      C1322   1.555       .  S
C1318      C1324   1.493       .  S
C1318      C1323   1.657       .  S
C1319      C1327   1.374       .  A
C1319      C1322   1.379       .  A
C1320      C1323   1.423       .  A
C1321      C1335   1.373       .  A
C1321      C1324   1.381       .  A
C1322      C1325   1.401       .  A
C1324      C1332   1.357       .  A
C1325      N1326   1.363       .  A
C1325      H1338   1.069       .  S
N1326      C1327   1.352       .  A
C1327      H1328   1.078       .  S
C1329      N1330   1.392       .  A
C1329      H1339   1.080       .  S
N1330      C1331   1.360       .  A
N1330      N1353   1.448       .  S
C1331      H1337   1.081       .  S
C1332      N1333   1.341       .  A
C1332      H1334   1.064       .  S
N1333      C1335   1.346       .  A
C1335      H1336   1.079       .  S
C1340      C1342   1.528       .  S
C1340      C1344   1.530       .  S
C1340      C1343   1.530       .  S
C1341      C1345   1.553       .  S
C1341      C1347   1.501       .  S
C1341      C1346   1.661       .  S
C1342      C1350   1.370       .  A
C1342      C1345   1.377       .  A
C1343      C1354   1.381       .  A
C1343      C1346   1.425       .  A
C1344      C1358   1.375       .  A
C1344      C1347   1.386       .  A
C1345      C1348   1.400       .  A
C1346      C1352   1.444       .  A
C1347      C1355   1.360       .  A
C1348      N1349   1.362       .  A
C1348      H1361   1.066       .  S
N1349      C1350   1.351       .  A
C1350      H1351   1.076       .  S
C1352      N1353   1.395       .  A
C1352      H1362   1.081       .  S
N1353      C1354   1.355       .  A
C1354      H1360   1.080       .  S
C1355      N1356   1.344       .  A
C1355      H1357   1.066       .  S
N1356      C1358   1.348       .  A
C1358      H1359   1.079       .  S
O1363     Zr1375   2.411       .  S
O1363      C2869   1.260       .  A
O1364     Zr2905   2.434   1_545  S
C1365      O2867   1.263       .  A
O1366     Zr1378   2.418   1_554  S
O1366      C1368   1.281       .  A
O1367     Zr1402   2.404       .  S
O1367      C1368   1.283   1_556  A
O1369     Zr1378   2.462   1_554  S
O1369      C2875   1.286       .  A
O1370     Zr2905   2.376       .  S
O1370      C1371   1.268   1_556  A
C1371      O2873   1.286       .  A
C1371      C1439   1.469       .  S
O1372     Zr1375   2.408       .  S
O1372      C1374   1.275       .  A
O1373      C1374   1.290       .  A
Zr1375     O1377   2.446       .  S
Zr1375     O1405   2.371       .  S
Zr1375     O1407   2.357       .  S
O1377      H1418   0.990       .  S
Zr1378     O1380   2.437   1_556  S
Zr1378     O1382   2.384       .  S
Zr1378     O1381   2.359       .  S
Zr1378     O1406   2.354       .  S
Zr1378     O1408   2.369       .  S
O1379      H1420   0.990       .  S
O1379      H1423   0.990       .  S
O1380      H1413   0.990       .  S
O1381     Zr1401   2.403       .  S
O1382     Zr1402   2.398       .  S
O1383     Zr1395   2.413       .  S
O1383      C1385   1.284       .  A
O1384      C1385   1.285       .  A
C1385      C1446   1.460       .  S
O1386     Zr1398   2.412       .  S
O1386      C2892   1.265       .  A
O1387     Zr2905   2.431       .  S
O1387      C1388   1.281       .  A
C1388      O2890   1.266       .  A
C1388      C1489   1.465       .  S
O1389     Zr1398   2.424       .  S
O1389      C1391   1.275       .  A
O1390     Zr1402   2.429       .  S
O1390      C1391   1.282       .  A
C1391      C1429   1.469       .  S
O1392     Zr1395   2.470       .  S
O1392      C2898   1.288       .  A
O1393     Zr2905   2.375       .  S
C1394      O2896   1.287       .  A
C1394      C1469   1.471       .  S
Zr1395     O1396   2.436       .  S
Zr1395     O1397   2.438       .  S
Zr1395     O1407   2.341       .  S
Zr1395     O1405   2.372       .  S
O1396      H1416   0.990       .  S
O1396      H1421   0.990       .  S
O1397      H1417   0.990       .  S
Zr1398     O1399   2.438       .  S
Zr1398     O1400   2.437       .  S
Zr1398     O1404   2.384       .  S
Zr1398     O1403   2.358       .  S
Zr1398     O1408   2.374       .  S
Zr1398     O1406   2.374       .  S
O1399      H1415   0.990       .  S
O1400      H1414   0.990       .  S
O1400      H1424   0.991       .  S
Zr1401     O2868   2.428   1_565  S
Zr1401     O2874   2.377       .  S
Zr1401     O2891   2.426       .  S
Zr1401     O2897   2.381       .  S
Zr1401     O1404   2.412       .  S
Zr1401     O1406   2.438       .  S
Zr1402     O1403   2.408       .  S
Zr1402     O1408   2.388       .  S
O1403      H1411   0.965       .  S
O1406      H1410   0.950       .  S
O1407      H1412   0.956       .  S
C1425      C1426   1.413       .  A
C1425      C1430   1.400       .  A
C1425      H1432   1.080       .  S
C1426      C1427   1.415       .  A
C1427      C1428   1.396       .  A
C1427      F1434   1.358       .  S
C1428      C1429   1.400       .  A
C1428      H1433   1.084       .  S
C1429      C1430   1.402       .  A
C1430      F1431   1.358       .  S
C1435      C1436   1.419       .  A
C1435      C1440   1.390       .  A
C1435      H1442   1.081       .  S
C1436      C1437   1.404       .  A
C1437      F1444   1.355       .  S
C1438      C1439   1.409   1_556  A
C1438      H1443   1.083       .  S
C1440      F1441   1.357       .  S
C1445      C1446   1.405       .  A
C1445      C1450   1.385       .  A
C1445      H1452   1.083       .  S
C1446      C1447   1.403       .  A
C1447      C1448   1.386       .  A
C1447      F1454   1.358       .  S
C1448      C1449   1.407       .  A
C1448      H1453   1.083       .  S
C1449      C1450   1.403       .  A
C1450      F1451   1.357       .  S
C1455      C1456   1.410       .  A
C1455      C1460   1.402       .  A
C1455      H1462   1.079       .  S
C1456      C1457   1.414       .  A
C1457      C1458   1.373       .  A
C1457      F1464   1.359       .  S
C1458      C1459   1.389       .  A
C1459      C1460   1.400       .  A
C1460      F1461   1.357       .  S
C1465      C1466   1.404       .  A
C1465      C1470   1.390       .  A
C1465      H1472   1.081       .  S
C1466      C1467   1.419       .  A
C1467      C1468   1.389       .  A
C1467      F1474   1.355       .  S
C1468      C1469   1.393       .  A
C1468      H1473   1.080       .  S
C1469      C1470   1.412       .  A
C1475      C1476   1.399       .  A
C1475      C1480   1.397       .  A
C1475      H1482   1.080       .  S
C1476      C1477   1.423       .  A
C1477      C1478   1.393       .  A
C1477      F1484   1.359       .  S
C1478      C1479   1.395       .  A
C1479      C1480   1.415       .  A
C1480      F1481   1.354       .  S
C1485      C1486   1.412       .  A
C1485      C1490   1.393       .  A
C1485      H1492   1.084       .  S
C1486      C1487   1.409       .  A
C1487      C1488   1.389       .  A
C1487      F1494   1.353       .  S
C1488      C1489   1.400       .  A
C1488      H1493   1.081       .  S
C1489      C1490   1.405       .  A
C1490      F1491   1.358       .  S
C1495      C1496   1.406       .  A
C1495      C1500   1.391       .  A
C1495      H1502   1.084       .  S
C1496      C1497   1.405       .  A
C1497      C1498   1.391       .  A
C1497      F1504   1.356       .  S
C1498      C1499   1.403       .  A
C1499      C1500   1.409       .  A
C1505      C1506   1.551       .  S
C1505      C1511   1.549       .  S
C1505      C1509   1.539       .  S
C1505      C1872   1.518       .  S
C1506      H1513   1.087       .  S
C1506      C1507   1.354       .  D
C1507      C1508   1.552       .  S
C1507      N1702   1.467       .  S
C1508      C1512   1.623       .  S
C1508      C1510   1.607       .  S
C1508      H1514   1.110       .  S
C1509      H1515   1.074       .  S
C1509      C1510   1.343       .  D
C1510      C1552   1.568       .  S
C1511      H1516   1.085       .  S
C1511      C1512   1.364       .  D
C1512      C1518   1.602       .  S
C1517      C1547   1.608       .  S
C1517      C1519   1.518       .  S
C1517      C1521   1.521       .  S
C1517      C1520   1.621       .  S
C1518      C1522   1.512       .  S
C1518      C1524   1.517       .  S
C1518      C1523   1.621       .  S
C1519      C1527   1.377       .  A
C1519      C1522   1.395       .  A
C1520      C1523   1.443       .  A
C1521      C1535   1.382       .  A
C1521      C1524   1.396       .  A
C1522      C1525   1.376       .  A
C1524      C1532   1.377       .  A
C1525      N1526   1.343       .  A
C1525      H1538   1.078       .  S
N1526      C1594   1.424       .  S
N1526      C1527   1.340       .  A
C1527      H1528   1.080       .  S
C1529      N1530   1.383       .  A
C1529      H1539   1.081       .  S
N1530      C1531   1.385       .  A
N1530      N1612   1.465       .  S
C1531      H1537   1.081       .  S
C1532      N1533   1.340       .  A
C1532      H1534   1.079       .  S
N1533      C1676   1.428       .  S
N1533      C1535   1.347       .  A
C1535      H1536   1.080       .  S
C1540      C1541   1.546       .  S
C1540      C1546   1.554       .  S
C1540      C1544   1.544       .  S
C1540      C1862   1.523       .  S
C1541      H1548   1.087       .  S
C1541      C1542   1.350       .  D
C1542      C1543   1.557       .  S
C1542      N1725   1.467       .  S
C1543      C1547   1.623       .  S
C1543      C1545   1.611       .  S
C1543      H1549   1.110       .  S
C1544      H1550   1.076       .  S
C1544      C1545   1.346       .  D
C1545      C1646   1.577       .  S
C1546      H1551   1.085       .  S
C1546      C1547   1.368       .  D
C1552      C1554   1.516       .  S
C1552      C1556   1.556       .  S
C1552      C1555   1.627       .  S
C1553      C1639   1.516       .  S
C1553      C1557   1.507       .  S
C1553      C1559   1.519       .  S
C1553      C1558   1.559       .  S
C1554      C1562   1.367       .  A
C1554      C1557   1.378       .  A
C1555      C1566   1.431       .  A
C1555      C1558   1.422       .  A
C1556      C1570   1.392       .  A
C1556      C1559   1.372       .  A
C1557      C1560   1.368       .  A
C1558      C1564   1.392       .  A
C1559      C1567   1.374       .  A
C1560      N1561   1.343       .  A
C1560      H1573   1.076       .  S
N1561      C1589   1.425       .  S
N1561      C1562   1.346       .  A
C1562      H1563   1.068       .  S
C1564      N2317   1.362   1_545  A
C1564      H2326   1.079   1_545  S
N1565      C2316   1.358       .  A
N1565      C2318   1.390       .  A
N1565      N1659   1.444       .  S
C1566      N2317   1.387   1_545  A
C1566      H2324   1.081       .  S
C1567      N1568   1.351       .  A
C1567      H1569   1.068       .  S
N1568      C1577   1.469       .  S
N1568      C1570   1.373       .  A
C1570      H1571   1.076       .  S
H1572      C2318   1.081       .  S
H1574      C2316   1.078       .  S
C1575      C1576   1.542       .  S
C1575      C1581   1.568       .  S
C1575      C1579   1.533       .  S
C1575      C1852   1.523       .  S
C1576      H1583   1.086       .  S
C1576      C1577   1.350       .  D
C1577      C1578   1.576       .  S
C1578      C1582   1.629       .  S
C1578      C1580   1.606       .  S
C1578      H1584   1.109       .  S
C1579      H1585   1.083       .  S
C1579      C1580   1.346       .  D
C1580      C1694   1.583       .  S
C1581      H1586   1.083       .  S
C1581      C1582   1.375       .  D
C1582      C1599   1.627       .  S
C1587      C1588   1.548       .  S
C1587      C1593   1.542       .  S
C1587      C1591   1.559       .  S
C1587      C1842   1.507       .  S
C1588      H1595   1.087       .  S
C1588      C1589   1.338       .  D
C1589      C1590   1.517       .  S
C1590      C1594   1.526       .  S
C1590      C1592   1.553       .  S
C1590      H1596   1.112       .  S
C1591      H1597   1.080       .  S
C1591      C1592   1.371       .  D
C1592      C1716   1.530       .  S
C1593      H1598   1.084       .  S
C1593      C1594   1.353       .  D
C1599      C1601   1.520       .  S
C1599      C1603   1.526       .  S
C1599      C1602   1.625       .  S
C1600      C1688   1.626       .  S
C1600      C1604   1.524       .  S
C1600      C1606   1.519       .  S
C1600      C1605   1.626       .  S
C1601      C1609   1.377       .  A
C1601      C1604   1.400       .  A
C1602      C1613   1.425       .  A
C1602      C1605   1.447       .  A
C1603      C1617   1.383       .  A
C1603      C1606   1.402       .  A
C1604      C1607   1.380       .  A
C1605      C1611   1.423       .  A
C1606      C1614   1.375       .  A
C1607      N1608   1.349       .  A
C1607      H1620   1.075       .  S
N1608      C1641   1.438       .  S
N1608      C1609   1.345       .  A
C1609      H1610   1.080       .  S
C1611      N1612   1.384       .  A
C1611      H1621   1.081       .  S
N1612      C1613   1.385       .  A
C1613      H1619   1.082       .  S
C1614      N1615   1.344       .  A
C1614      H1616   1.080       .  S
N1615      C1629   1.434       .  S
N1615      C1617   1.348       .  A
C1617      H1618   1.080       .  S
C1622      C1623   1.541       .  S
C1622      C1628   1.552       .  S
C1622      C1626   1.557       .  S
C1622      C1832   1.506       .  S
C1623      H1630   1.087       .  S
C1623      C1624   1.343       .  D
C1624      C1625   1.524       .  S
C1624      N1709   1.425       .  S
C1625      C1629   1.520       .  S
C1625      C1627   1.556       .  S
C1625      H1631   1.112       .  S
C1626      H1632   1.079       .  S
C1626      C1627   1.372       .  D
C1627      C1647   1.527       .  S
C1628      H1633   1.086       .  S
C1628      C1629   1.354       .  D
C1634      C1635   1.551       .  S
C1634      C1640   1.558       .  S
C1634      C1638   1.534       .  S
C1634      C1825   1.503       .  S
C1635      H1642   1.086       .  S
C1635      C1636   1.352       .  D
C1636      C1637   1.526       .  S
C1636      N1732   1.431       .  S
C1637      C1641   1.527       .  S
C1637      C1639   1.557       .  S
C1637      H1643   1.112       .  S
C1638      H1644   1.081       .  S
C1638      C1639   1.353       .  D
C1640      H1645   1.083       .  S
C1640      C1641   1.360       .  D
C1646      C1648   1.516       .  S
C1646      C1650   1.556       .  S
C1646      C1649   1.634       .  S
C1647      C1651   1.509       .  S
C1647      C1653   1.531       .  S
C1647      C1652   1.550       .  S
C1648      C1656   1.365       .  A
C1648      C1651   1.374       .  A
C1649      C1660   1.432       .  A
C1649      C1652   1.425       .  A
C1650      C1664   1.393       .  A
C1650      C1653   1.377       .  A
C1651      C1654   1.368       .  A
C1652      C1658   1.387       .  A
C1653      C1661   1.378       .  A
C1654      N1655   1.343       .  A
C1654      H1667   1.077       .  S
N1655      C1671   1.426       .  S
N1655      C1656   1.347       .  A
C1656      H1657   1.063       .  S
C1658      N1659   1.360       .  A
C1658      H1668   1.080       .  S
N1659      C1660   1.390       .  A
C1660      H1666   1.081       .  S
C1661      N1662   1.357       .  A
C1661      H1663   1.068       .  S
N1662      C1683   1.476       .  S
N1662      C1664   1.374       .  A
C1664      H1665   1.077       .  S
C1669      C1670   1.546       .  S
C1669      C1675   1.549       .  S
C1669      C1673   1.562       .  S
C1669      C1812   1.509       .  S
C1670      H1677   1.087       .  S
C1670      C1671   1.336       .  D
C1671      C1672   1.518       .  S
C1672      C1676   1.521       .  S
C1672      C1674   1.559       .  S
C1672      H1678   1.112       .  S
C1673      H1679   1.081   1_554  S
C1673      C1674   1.370       .  D
C1674      C1693   1.531       .  S
C1675      H1680   1.085       .  S
C1675      C1676   1.355       .  D
C1681      C1682   1.550       .  S
C1681      C1687   1.560       .  S
C1681      C1685   1.550       .  S
C1681      C1802   1.539       .  S
C1682      H1689   1.085       .  S
C1682      C1683   1.351       .  D
C1683      C1684   1.582       .  S
C1684      C1688   1.624       .  S
C1684      C1686   1.612       .  S
C1684      H1690   1.108       .  S
C1685      H1691   1.080       .  S
C1685      C1686   1.354       .  D
C1686      C1717   1.596       .  S
C1687      H1692   1.085       .  S
C1687      C1688   1.370       .  D
C1693      C1695   1.534       .  S
C1693      C1697   1.529       .  S
C1693      C1696   1.535       .  S
C1694      C1698   1.555       .  S
C1694      C1700   1.493       .  S
C1694      C1699   1.658       .  S
C1695      C1703   1.375       .  A
C1695      C1698   1.381       .  A
C1696      C2083   1.384   1_554  A
C1696      C1699   1.424       .  A
C1697      C1711   1.373       .  A
C1697      C1700   1.379       .  A
C1698      C1701   1.401       .  A
C1699      C2081   1.442   1_554  A
C1700      C1708   1.356       .  A
C1701      N1702   1.364       .  A
C1701      H1714   1.070       .  S
N1702      C1703   1.351       .  A
C1703      H1704   1.078       .  S
C1705      C2075   1.443       .  A
C1705      N1706   1.394       .  A
C1705      H1715   1.080       .  S
N1706      C1707   1.362       .  A
N1706      N1729   1.452       .  S
C1707      C2072   1.389       .  A
C1707      H1713   1.081       .  S
C1708      N1709   1.342       .  A
C1708      H1710   1.062       .  S
N1709      C1711   1.347       .  A
C1711      H1712   1.079       .  S
C1716      C1718   1.527       .  S
C1716      C1720   1.531       .  S
C1716      C1719   1.532       .  S
C1717      C1721   1.557       .  S
C1717      C1723   1.507       .  S
C1717      C1722   1.665       .  S
C1718      C1726   1.372       .  A
C1718      C1721   1.374       .  A
C1719      C1730   1.385       .  A
C1719      C1722   1.425       .  A
C1720      C1734   1.374       .  A
C1720      C1723   1.387       .  A
C1721      C1724   1.400       .  A
C1722      C1728   1.447       .  A
C1723      C1731   1.367       .  A
C1724      N1725   1.364       .  A
C1724      H1737   1.066       .  S
N1725      C1726   1.353       .  A
C1726      H1727   1.076       .  S
C1728      N1729   1.397       .  A
C1728      H1738   1.081       .  S
N1729      C1730   1.355       .  A
C1730      H1736   1.079       .  S
C1731      N1732   1.348       .  A
C1731      H1733   1.069       .  S
N1732      C1734   1.347       .  A
C1734      H1735   1.078       .  S
O1739     Zr1751   2.412   1_455  S
O1740      C2493   1.280       .  A
C1741      O2492   1.278       .  A
C1741      C2251   1.462       .  S
O1742     Zr1754   2.409       .  S
O1742      C1744   1.282       .  A
O1743     Zr1778   2.414       .  S
O1743      C1744   1.284       .  A
C1744      C2211   1.444       .  S
O1745     Zr1754   2.460   1_455  S
O1746      C1747   1.269       .  A
C1747      C1815   1.470       .  S
O1748     Zr1751   2.411       .  S
O1748      C1750   1.275       .  A
O1749     Zr2530   2.459   1_545  S
O1749      C1750   1.290       .  A
C1750      C2231   1.482       .  S
Zr1751     O2128   2.435       .  S
Zr1751     O1753   2.444       .  S
Zr1751     O2509   2.375   1_645  S
Zr1751     O2510   2.363   1_545  S
Zr1751     O1781   2.372       .  S
Zr1751     O1783   2.361   1_655  S
O1752     Zr2127   2.436   1_554  S
O1752      H2547   0.990       .  S
O1753      H1794   0.990       .  S
O1753      H2174   0.990   1_655  S
Zr1754     O2131   2.440       .  S
Zr1754     O1756   2.436       .  S
Zr1754     O1758   2.381       .  S
Zr1754     O1757   2.352   1_655  S
Zr1754     O1782   2.357   1_655  S
Zr1754     O1784   2.373       .  S
O1755     Zr2130   2.435       .  S
O1755      H1796   0.990       .  S
O1755      H1799   0.990       .  S
O1756      H1789   0.990       .  S
O1757     Zr2503   2.379   1_455  S
O1757     Zr1777   2.402       .  S
O1758     Zr2503   2.370       .  S
O1758     Zr1778   2.396       .  S
O1758      H2161   0.966       .  S
O1759     Zr1771   2.409       .  S
O1759      C1761   1.283       .  A
O1760     Zr2530   2.408       .  S
O1760      C1761   1.287       .  A
C1761      C1822   1.462       .  S
O1762     Zr1774   2.401   1_455  S
O1763      C1764   1.277       .  A
C1764      C1865   1.462       .  S
O1765     Zr1774   2.420       .  S
O1765      C1767   1.276       .  A
O1766     Zr1778   2.451       .  S
O1766      C1767   1.288       .  A
C1767      C1805   1.475       .  S
O1768     Zr1771   2.459   1_455  S
O1769      C2522   1.271       .  A
C1770      O2521   1.268   1_545  A
C1770      C1845   1.473       .  S
Zr1771     O1772   2.440       .  S
Zr1771     O1773   2.436   1_565  S
Zr1771     O2531   2.384       .  S
Zr1771     O2532   2.368   1_655  S
Zr1771     O1783   2.345   1_665  S
Zr1771     O1781   2.371   1_565  S
O1772      H1792   0.990       .  S
O1772      H1797   0.990   1_565  S
O1773      H1793   0.990       .  S
Zr1774     O1775   2.438       .  S
Zr1774     O1776   2.436       .  S
Zr1774     O1780   2.379   1_655  S
Zr1774     O1779   2.354       .  S
Zr1774     O1784   2.370       .  S
Zr1774     O1782   2.370   1_655  S
O1775      H1791   0.990       .  S
O1776      H1790   0.990       .  S
O1776      H1800   0.990       .  S
Zr1777     O1780   2.408       .  S
Zr1777     O1782   2.430       .  S
Zr1777     O2535   2.442       .  S
Zr1778     O2501   2.447       .  S
Zr1778     O2512   2.395       .  S
Zr1778     O1779   2.398       .  S
Zr1778     O2533   2.390       .  S
Zr1778     O1784   2.385       .  S
O1779     Zr2523   2.392       .  S
O1779      H1787   0.965       .  S
O1780     Zr2523   2.362   1_455  S
O1781     Zr2530   2.387   1_545  S
O1782      H1786   0.956       .  S
O1783     Zr2529   2.435   1_545  S
O1783      H1788   0.958       .  S
H1785      O2134   0.964       .  S
H1795      O2504   0.989       .  S
H1798      O2129   0.990   1_455  S
C1801      C1802   1.414       .  A
C1801      C1806   1.402       .  A
C1801      H1808   1.080       .  S
C1802      C1803   1.414       .  A
C1803      C1804   1.398       .  A
C1803      F1810   1.358       .  S
C1804      C1805   1.401       .  A
C1804      H1809   1.084       .  S
C1805      C1806   1.404       .  A
C1806      F1807   1.358       .  S
C1811      C1812   1.419       .  A
C1811      C1816   1.390       .  A
C1811      H1818   1.081       .  S
C1812      C1813   1.406   1_554  A
C1813      C2190   1.390       .  A
C1813      F1820   1.355       .  S
C1814      C2189   1.388       .  A
C1814      C1815   1.408       .  A
C1814      H1819   1.083       .  S
C1815      C2192   1.395       .  A
C1816      C2191   1.397       .  A
C1816      F1817   1.358       .  S
C1821      C1822   1.406   1_545  A
C1821      C1826   1.385       .  A
C1821      H1828   1.083   1_545  S
C1822      C1823   1.402   1_565  A
C1823      C1824   1.388       .  A
C1823      F1830   1.358   1_545  S
C1824      C1825   1.408       .  A
C1824      H1829   1.083       .  S
C1825      C1826   1.403       .  A
C1826      F1827   1.356       .  S
C1831      C1832   1.409       .  A
C1831      C1836   1.402       .  A
C1831      H1838   1.080       .  S
C1832      C1833   1.414       .  A
C1833      C1834   1.375       .  A
C1833      F1840   1.360       .  S
C1834      C1835   1.389       .  A
C1834      H2215   1.085       .  S
C1835      C1836   1.401       .  A
C1835      C2120   1.441       .  S
C1836      F1837   1.357       .  S
H1839      C2210   1.085       .  S
C1841      C1842   1.402       .  A
C1841      C1846   1.390       .  A
C1841      H1848   1.081       .  S
C1842      C1843   1.419       .  A
C1843      C1844   1.389       .  A
C1843      F1850   1.356       .  S
C1844      C1845   1.394       .  A
C1844      H1849   1.081       .  S
C1845      C1846   1.414       .  A
C1846      F2599   1.357       .  S
F1847      C2598   1.358       .  S
C1851      C1852   1.400       .  A
C1851      C1856   1.399       .  A
C1851      H1858   1.080       .  S
C1852      C1853   1.421       .  A
C1853      C1854   1.394   1_554  A
C1853      F1860   1.359       .  S
C1854      C1855   1.396       .  A
C1854      H2235   1.083       .  S
C1855      C1856   1.416   1_556  A
C1855      C2126   1.482       .  S
C1856      F1857   1.355   1_554  S
H1859      C2230   1.083       .  S
C1861      C1862   1.408       .  A
C1861      C1866   1.391       .  A
C1861      H1868   1.084       .  S
C1862      C1863   1.412       .  A
C1863      C1864   1.391       .  A
C1863      F1870   1.355       .  S
C1864      C1865   1.400       .  A
C1864      H1869   1.082       .  S
C1865      C1866   1.404       .  A
C1866      F1867   1.357       .  S
C1871      C1872   1.404       .  A
C1871      C1876   1.389       .  A
C1871      H1878   1.084       .  S
C1872      C1873   1.412       .  A
C1873      C1874   1.390       .  A
C1873      F1880   1.356       .  S
C1874      C1875   1.401       .  A
C1874      H2631   1.082       .  S
C1875      C1876   1.408       .  A
C1875      C2117   1.464   1_554  S
C1876      F2253   1.355       .  S
F1877      C2252   1.357       .  S
H1879      C2626   1.081       .  S
C1881      C1882   1.552       .  S
C1881      C1887   1.542       .  S
C1881      C1885   1.544       .  S
C1881      C2248   1.515       .  S
C1882      H1889   1.086       .  S
C1882      C1883   1.352       .  D
C1883      C1884   1.551       .  S
C1883      N2078   1.466       .  S
C1884      C1888   1.624       .  S
C1884      C1886   1.611       .  S
C1884      H1890   1.110       .  S
C1885      H1891   1.078       .  S
C1885      C1886   1.347       .  D
C1886      C1928   1.576       .  S
C1887      H1892   1.085       .  S
C1887      C1888   1.360       .  D
C1888      C1894   1.595       .  S
C1893      C1923   1.601       .  S
C1893      C1895   1.519       .  S
C1893      C1897   1.519       .  S
C1893      C1896   1.622       .  S
C1894      C1898   1.508       .  S
C1894      C1900   1.518       .  S
C1894      C1899   1.621       .  S
C1895      C1903   1.379       .  A
C1895      C1898   1.392       .  A
C1896      C1899   1.442       .  A
C1897      C1911   1.381       .  A
C1897      C1900   1.395       .  A
C1898      C1901   1.375       .  A
C1900      C1908   1.378       .  A
C1901      N1902   1.343       .  A
C1901      H1914   1.077       .  S
N1902      C1970   1.426       .  S
N1902      C1903   1.342       .  A
C1903      H1904   1.079       .  S
C1905      N1906   1.382       .  A
C1905      H1915   1.081       .  S
N1906      C1907   1.386       .  A
N1906      N1988   1.464       .  S
C1907      H1913   1.082       .  S
C1908      N1909   1.342       .  A
C1908      H1910   1.079       .  S
N1909      C2052   1.428       .  S
N1909      C1911   1.347       .  A
C1911      H1912   1.080       .  S
C1916      C1917   1.547       .  S
C1916      C1922   1.548       .  S
C1916      C1920   1.546       .  S
C1916      C2238   1.519       .  S
C1917      H1924   1.087       .  S
C1917      C1918   1.350       .  D
C1918      C1919   1.555       .  S
C1918      N2101   1.467       .  S
C1919      C1923   1.624       .  S
C1919      C1921   1.611       .  S
C1919      H1925   1.110       .  S
C1920      H1926   1.079       .  S
C1920      C1921   1.349       .  D
C1921      C2022   1.577       .  S
C1922      H1927   1.085       .  S
C1922      C1923   1.364       .  D
C1928      C1930   1.516       .  S
C1928      C1932   1.559       .  S
C1928      C1931   1.630       .  S
C1929      C2015   1.519       .  S
C1929      C1933   1.503       .  S
C1929      C1935   1.519       .  S
C1929      C1934   1.555       .  S
C1930      C1938   1.366       .  A
C1930      C1933   1.381       .  A
C1931      C1942   1.433       .  A
C1931      C1934   1.423       .  A
C1932      C1946   1.393       .  A
C1932      C1935   1.375       .  A
C1933      C1936   1.366       .  A
C1934      C1940   1.388       .  A
C1935      C1943   1.373       .  A
C1936      N1937   1.339       .  A
C1936      H1949   1.077       .  S
N1937      C1965   1.420       .  S
N1937      C1938   1.344       .  A
C1938      H1939   1.068       .  S
C1940      N2693   1.358   1_545  A
C1940      H2702   1.077   1_545  S
N1941      C2692   1.359       .  A
N1941      C2694   1.390       .  A
N1941      N2035   1.446       .  S
C1942      N2693   1.389   1_545  A
C1942      H2700   1.081       .  S
C1943      N1944   1.352       .  A
C1943      H1945   1.067       .  S
N1944      C1953   1.472       .  S
N1944      C1946   1.375       .  A
C1946      H1947   1.076       .  S
H1948      C2694   1.081       .  S
H1950      C2692   1.078       .  S
C1951      C1952   1.543       .  S
C1951      C1957   1.568       .  S
C1951      C1955   1.536       .  S
C1951      C2228   1.526       .  S
C1952      H1959   1.086       .  S
C1952      C1953   1.350       .  D
C1953      C1954   1.577       .  S
C1954      C1958   1.627       .  S
C1954      C1956   1.609       .  S
C1954      H1960   1.109       .  S
C1955      H1961   1.083       .  S
C1955      C1956   1.349       .  D
C1956      C2070   1.588       .  S
C1957      H1962   1.083       .  S
C1957      C1958   1.373       .  D
C1958      C1975   1.625       .  S
C1963      C1964   1.543       .  S
C1963      C1969   1.547       .  S
C1963      C1967   1.560       .  S
C1963      C2218   1.508       .  S
C1964      H1971   1.087       .  S
C1964      C1965   1.335       .  D
C1965      C1966   1.516       .  S
C1966      C1970   1.523       .  S
C1966      C1968   1.552       .  S
C1966      H1972   1.112       .  S
C1967      H1973   1.080       .  S
C1967      C1968   1.371       .  D
C1968      C2092   1.529       .  S
C1969      H1974   1.084       .  S
C1969      C1970   1.357       .  D
C1975      C1977   1.522       .  S
C1975      C1979   1.522       .  S
C1975      C1978   1.627       .  S
C1976      C2064   1.622       .  S
C1976      C1980   1.532       .  S
C1976      C1982   1.519       .  S
C1976      C1981   1.617       .  S
C1977      C1985   1.378       .  A
C1977      C1980   1.402       .  A
C1978      C1989   1.425       .  A
C1978      C1981   1.445       .  A
C1979      C1993   1.380       .  A
C1979      C1982   1.400       .  A
C1980      C1983   1.384       .  A
C1981      C1987   1.420       .  A
C1982      C1990   1.376       .  A
C1983      N1984   1.352       .  A
C1983      H1996   1.075       .  S
N1984      C2017   1.441       .  S
N1984      C1985   1.346       .  A
C1985      H1986   1.080       .  S
C1987      N1988   1.382       .  A
C1987      H1997   1.081       .  S
N1988      C1989   1.386       .  A
C1989      H1995   1.082       .  S
C1990      N1991   1.343       .  A
C1990      H1992   1.080       .  S
N1991      C2005   1.434       .  S
N1991      C1993   1.347       .  A
C1993      H1994   1.077       .  S
C1998      C1999   1.538       .  S
C1998      C2004   1.555       .  S
C1998      C2002   1.555       .  S
C1998      C2208   1.504       .  S
C1999      H2006   1.087       .  S
C1999      C2000   1.339       .  D
C2000      C2001   1.525       .  S
C2000      N2085   1.424       .  S
C2001      C2005   1.520       .  S
C2001      C2003   1.556       .  S
C2001      H2007   1.112       .  S
C2002      H2008   1.080       .  S
C2002      C2003   1.373       .  D
C2003      C2023   1.527       .  S
C2004      H2009   1.086       .  S
C2004      C2005   1.355       .  D
C2010      C2011   1.551       .  S
C2010      C2016   1.561       .  S
C2010      C2014   1.532       .  S
C2010      C2201   1.509       .  S
C2011      H2018   1.086       .  S
C2011      C2012   1.349       .  D
C2012      C2013   1.527       .  S
C2012      N2108   1.431       .  S
C2013      C2017   1.525       .  S
C2013      C2015   1.556       .  S
C2013      H2019   1.112       .  S
C2014      H2020   1.079       .  S
C2014      C2015   1.356       .  D
C2016      H2021   1.084       .  S
C2016      C2017   1.366       .  D
C2022      C2024   1.514       .  S
C2022      C2026   1.557       .  S
C2022      C2025   1.635       .  S
C2023      C2027   1.508       .  S
C2023      C2029   1.530       .  S
C2023      C2028   1.549       .  S
C2024      C2032   1.364       .  A
C2024      C2027   1.375       .  A
C2025      C2036   1.433       .  A
C2025      C2028   1.424       .  A
C2026      C2040   1.393       .  A
C2026      C2029   1.378       .  A
C2027      C2030   1.366       .  A
C2028      C2034   1.386       .  A
C2029      C2037   1.376       .  A
C2030      N2031   1.342       .  A
C2030      H2043   1.077       .  S
N2031      C2047   1.422       .  S
N2031      C2032   1.345       .  A
C2032      H2033   1.065       .  S
C2034      N2035   1.360       .  A
C2034      H2044   1.079       .  S
N2035      C2036   1.391       .  A
C2036      H2042   1.081       .  S
C2037      N2038   1.356       .  A
C2037      H2039   1.068       .  S
N2038      C2059   1.475       .  S
N2038      C2040   1.374       .  A
C2040      H2041   1.077       .  S
C2045      C2046   1.543       .  S
C2045      C2051   1.548       .  S
C2045      C2049   1.564       .  S
C2045      C2188   1.509       .  S
C2046      H2053   1.088       .  S
C2046      C2047   1.336       .  D
C2047      C2048   1.516       .  S
C2048      C2052   1.524       .  S
C2048      C2050   1.555       .  S
C2048      H2054   1.111       .  S
C2049      H2055   1.080       .  S
C2049      C2050   1.371       .  D
C2050      C2069   1.534       .  S
C2051      H2056   1.085       .  S
C2051      C2052   1.356       .  D
C2057      C2058   1.546       .  S
C2057      C2063   1.564       .  S
C2057      C2061   1.552       .  S
C2057      C2178   1.544       .  S
C2058      H2065   1.086       .  S
C2058      C2059   1.349       .  D
C2059      C2060   1.582       .  S
C2060      C2064   1.617       .  S
C2060      C2062   1.603       .  S
C2060      H2066   1.108       .  S
C2061      H2067   1.078       .  S
C2061      C2062   1.355       .  D
C2062      C2093   1.588       .  S
C2063      H2068   1.085       .  S
C2063      C2064   1.374       .  D
C2069      C2071   1.531       .  S
C2069      C2073   1.532       .  S
C2069      C2072   1.538       .  S
C2070      C2074   1.556       .  S
C2070      C2076   1.495       .  S
C2070      C2075   1.659       .  S
C2071      C2079   1.374       .  A
C2071      C2074   1.379       .  A
C2072      C2075   1.424       .  A
C2073      C2087   1.374       .  A
C2073      C2076   1.386       .  A
C2074      C2077   1.402       .  A
C2076      C2084   1.359       .  A
C2077      N2078   1.364       .  A
C2077      H2090   1.069       .  S
N2078      C2079   1.351       .  A
C2079      H2080   1.077       .  S
C2081      N2082   1.393       .  A
C2081      H2091   1.081       .  S
N2082      C2083   1.360       .  A
N2082      N2105   1.449       .  S
C2083      H2089   1.081       .  S
C2084      N2085   1.341       .  A
C2084      H2086   1.067       .  S
N2085      C2087   1.346       .  A
C2087      H2088   1.079       .  S
C2092      C2094   1.526       .  S
C2092      C2096   1.530       .  S
C2092      C2095   1.531       .  S
C2093      C2097   1.558       .  S
C2093      C2099   1.508       .  S
C2093      C2098   1.658       .  S
C2094      C2102   1.370       .  A
C2094      C2097   1.374       .  A
C2095      C2106   1.382       .  A
C2095      C2098   1.423       .  A
C2096      C2110   1.374       .  A
C2096      C2099   1.388       .  A
C2097      C2100   1.403       .  A
C2098      C2104   1.443       .  A
C2099      C2107   1.367       .  A
C2100      N2101   1.365       .  A
C2100      H2113   1.067       .  S
N2101      C2102   1.352       .  A
C2102      H2103   1.076       .  S
C2104      N2105   1.395       .  A
C2104      H2114   1.081       .  S
N2105      C2106   1.356       .  A
C2106      H2112   1.079       .  S
C2107      N2108   1.347       .  A
C2107      H2109   1.068       .  S
N2108      C2110   1.346       .  A
C2110      H2111   1.079       .  S
O2115     Zr2127   2.408   1_455  S
O2116      C2869   1.279       .  A
C2117      O2868   1.278       .  A
O2118     Zr2130   2.411       .  S
O2118      C2120   1.282       .  A
O2119     Zr2154   2.415       .  S
O2119      C2120   1.285   1_556  A
O2121     Zr2130   2.478   1_455  S
O2122      C2123   1.273   1_556  A
C2123      C2191   1.472       .  S
O2124     Zr2127   2.415       .  S
O2124      C2126   1.276       .  A
O2125     Zr2906   2.453   1_545  S
O2125      C2126   1.290       .  A
Zr2127     O2129   2.445       .  S
Zr2127     O2885   2.376   1_645  S
Zr2127     O2886   2.368   1_545  S
Zr2127     O2157   2.372       .  S
Zr2127     O2159   2.371   1_655  S
O2128      H2923   0.990       .  S
O2129      H2170   0.989       .  S
Zr2130     O2132   2.434       .  S
Zr2130     O2134   2.378   1_554  S
Zr2130     O2133   2.351   1_654  S
Zr2130     O2158   2.345   1_654  S
Zr2130     O2160   2.381   1_554  S
O2131      H2172   0.990       .  S
O2131      H2175   0.990       .  S
O2132      H2165   0.990       .  S
O2133     Zr2879   2.383   1_455  S
O2133     Zr2153   2.408       .  S
O2134     Zr2879   2.368       .  S
O2134     Zr2154   2.406       .  S
O2135     Zr2147   2.426       .  S
O2135      C2137   1.286       .  A
O2136     Zr2906   2.404       .  S
O2136      C2137   1.286       .  A
C2137      C2198   1.468       .  S
O2138     Zr2150   2.408   1_455  S
O2139      C2140   1.280       .  A
C2140      C2241   1.462       .  S
O2141     Zr2150   2.418       .  S
O2141      C2143   1.276       .  A
O2142     Zr2154   2.458       .  S
O2142      C2143   1.289       .  A
C2143      C2181   1.477       .  S
O2144     Zr2147   2.456   1_455  S
O2145      C2898   1.270       .  A
C2146      O2897   1.269   1_545  A
C2146      C2221   1.475       .  S
Zr2147     O2148   2.436       .  S
Zr2147     O2149   2.436   1_565  S
Zr2147     O2907   2.382       .  S
Zr2147     O2908   2.373   1_655  S
Zr2147     O2159   2.354   1_665  S
Zr2147     O2157   2.371   1_565  S
O2148      H2168   0.990       .  S
O2148      H2173   0.990   1_565  S
O2149      H2169   0.990       .  S
Zr2150     O2151   2.435       .  S
Zr2150     O2152   2.437       .  S
Zr2150     O2156   2.385   1_655  S
Zr2150     O2155   2.357       .  S
Zr2150     O2160   2.368       .  S
Zr2150     O2158   2.354   1_655  S
O2151      H2167   0.990       .  S
O2152      H2166   0.990       .  S
O2152      H2176   0.990       .  S
Zr2153     O2156   2.411       .  S
Zr2153     O2158   2.434       .  S
Zr2153     O2911   2.439       .  S
Zr2154     O2877   2.447       .  S
Zr2154     O2888   2.412       .  S
Zr2154     O2155   2.395       .  S
Zr2154     O2909   2.391       .  S
Zr2154     O2160   2.386       .  S
O2155     Zr2899   2.388       .  S
O2155      H2163   0.964       .  S
O2156     Zr2899   2.367   1_455  S
O2157     Zr2906   2.389   1_545  S
O2158      H2162   0.961       .  S
O2159     Zr2905   2.435   1_545  S
O2159      H2164   0.963       .  S
H2171      O2880   0.988       .  S
C2177      C2178   1.415       .  A
C2177      C2182   1.402       .  A
C2177      H2184   1.078       .  S
C2178      C2179   1.415       .  A
C2179      C2180   1.402       .  A
C2179      F2186   1.358       .  S
C2180      C2181   1.402       .  A
C2180      H2185   1.084       .  S
C2181      C2182   1.402       .  A
C2182      F2183   1.357       .  S
C2187      C2188   1.419       .  A
C2187      C2192   1.390       .  A
C2187      H2194   1.081       .  S
C2188      C2189   1.406       .  A
C2189      F2196   1.354       .  S
C2190      C2191   1.409   1_556  A
C2190      H2195   1.083       .  S
C2192      F2193   1.357       .  S
C2197      C2198   1.407       .  A
C2197      C2202   1.389   1_565  A
C2197      H2204   1.083       .  S
C2198      C2199   1.405   1_565  A
C2199      C2200   1.388       .  A
C2199      F2206   1.358   1_545  S
C2200      C2201   1.409       .  A
C2200      H2205   1.083       .  S
C2201      C2202   1.403       .  A
C2202      F2203   1.356       .  S
C2207      C2208   1.412       .  A
C2207      C2212   1.405       .  A
C2207      H2214   1.081       .  S
C2208      C2209   1.413       .  A
C2209      C2210   1.371       .  A
C2209      F2216   1.359       .  S
C2210      C2211   1.389       .  A
C2211      C2212   1.402       .  A
C2212      F2213   1.357       .  S
C2217      C2218   1.404       .  A
C2217      C2222   1.391       .  A
C2217      H2224   1.081       .  S
C2218      C2219   1.420       .  A
C2219      C2220   1.390       .  A
C2219      F2226   1.356       .  S
C2220      C2221   1.394       .  A
C2220      H2225   1.081       .  S
C2221      C2222   1.412       .  A
C2222      F2975   1.357       .  S
F2223      C2974   1.358       .  S
C2227      C2228   1.400       .  A
C2227      C2232   1.399       .  A
C2227      H2234   1.080       .  S
C2228      C2229   1.421       .  A
C2229      C2230   1.396       .  A
C2229      F2236   1.359       .  S
C2230      C2231   1.395       .  A
C2231      C2232   1.416       .  A
C2232      F2233   1.355       .  S
C2237      C2238   1.409       .  A
C2237      C2242   1.391       .  A
C2237      H2244   1.084       .  S
C2238      C2239   1.408       .  A
C2239      C2240   1.391       .  A
C2239      F2246   1.356       .  S
C2240      C2241   1.401       .  A
C2240      H2245   1.082       .  S
C2241      C2242   1.405       .  A
C2242      F2243   1.358       .  S
C2247      C2248   1.405       .  A
C2247      C2252   1.389       .  A
C2247      H2254   1.084       .  S
C2248      C2249   1.406       .  A
C2249      C2250   1.391       .  A
C2249      F2256   1.356       .  S
C2250      C2251   1.402       .  A
C2250      H3007   1.081       .  S
C2251      C2252   1.408       .  A
H2255      C3002   1.080       .  S
C2257      C2258   1.551       .  S
C2257      C2263   1.544       .  S
C2257      C2261   1.543       .  S
C2257      C2624   1.516       .  S
C2258      H2265   1.086       .  S
C2258      C2259   1.350       .  D
C2259      C2260   1.552       .  S
C2259      N2454   1.465       .  S
C2260      C2264   1.624       .  S
C2260      C2262   1.611       .  S
C2260      H2266   1.110       .  S
C2261      H2267   1.078       .  S
C2261      C2262   1.345       .  D
C2262      C2304   1.573       .  S
C2263      H2268   1.085       .  S
C2263      C2264   1.362       .  D
C2264      C2270   1.598       .  S
C2269      C2299   1.598       .  S
C2269      C2271   1.519       .  S
C2269      C2273   1.516       .  S
C2269      C2272   1.619       .  S
C2270      C2274   1.516       .  S
C2270      C2276   1.519       .  S
C2270      C2275   1.618       .  S
C2271      C2279   1.379       .  A
C2271      C2274   1.394       .  A
C2272      C2275   1.442       .  A
C2273      C2287   1.380       .  A
C2273      C2276   1.394       .  A
C2274      C2277   1.380       .  A
C2276      C2284   1.379       .  A
C2277      N2278   1.346       .  A
C2277      H2290   1.079       .  S
N2278      C2346   1.428       .  S
N2278      C2279   1.342       .  A
C2279      H2280   1.080       .  S
C2281      N2282   1.382       .  A
C2281      H2291   1.081       .  S
N2282      C2283   1.388       .  A
N2282      N2364   1.467       .  S
C2283      H2289   1.081       .  S
C2284      N2285   1.342       .  A
C2284      H2286   1.079       .  S
N2285      C2428   1.429       .  S
N2285      C2287   1.345       .  A
C2287      H2288   1.078       .  S
C2292      C2293   1.551       .  S
C2292      C2298   1.549       .  S
C2292      C2296   1.541       .  S
C2292      C2614   1.519       .  S
C2293      H2300   1.087       .  S
C2293      C2294   1.350       .  D
C2294      C2295   1.557       .  S
C2294      N2477   1.470       .  S
C2295      C2299   1.621       .  S
C2295      C2297   1.612       .  S
C2295      H2301   1.110       .  S
C2296      H2302   1.077       .  S
C2296      C2297   1.344       .  D
C2297      C2398   1.572       .  S
C2298      H2303   1.085       .  S
C2298      C2299   1.365       .  D
C2304      C2306   1.514       .  S
C2304      C2308   1.553       .  S
C2304      C2307   1.633       .  S
C2305      C2391   1.517       .  S
C2305      C2309   1.504       .  S
C2305      C2311   1.521       .  S
C2305      C2310   1.551       .  S
C2306      C2314   1.364       .  A
C2306      C2309   1.376       .  A
C2307      C2318   1.433       .  A
C2307      C2310   1.424       .  A
C2308      C2322   1.389       .  A
C2308      C2311   1.375       .  A
C2309      C2312   1.365       .  A
C2310      C2316   1.387       .  A
C2311      C2319   1.373       .  A
C2312      N2313   1.342       .  A
C2312      H2325   1.076       .  S
N2313      C2341   1.421       .  S
N2313      C2314   1.345       .  A
C2314      H2315   1.067       .  S
N2317      N2411   1.445       .  S
C2319      N2320   1.353       .  A
C2319      H2321   1.068       .  S
N2320      C2329   1.468       .  S
N2320      C2322   1.372       .  A
C2322      H2323   1.076       .  S
C2327      C2328   1.541       .  S
C2327      C2333   1.571       .  S
C2327      C2331   1.534       .  S
C2327      C2604   1.525       .  S
C2328      H2335   1.086       .  S
C2328      C2329   1.349       .  D
C2329      C2330   1.577       .  S
C2330      C2334   1.627       .  S
C2330      C2332   1.610       .  S
C2330      H2336   1.109       .  S
C2331      H2337   1.084       .  S
C2331      C2332   1.347       .  D
C2332      C2446   1.588       .  S
C2333      H2338   1.084       .  S
C2333      C2334   1.376       .  D
C2334      C2351   1.631       .  S
C2339      C2340   1.543       .  S
C2339      C2345   1.549       .  S
C2339      C2343   1.560       .  S
C2339      C2594   1.509       .  S
C2340      H2347   1.088       .  S
C2340      C2341   1.334       .  D
C2341      C2342   1.516       .  S
C2342      C2346   1.524       .  S
C2342      C2344   1.553       .  S
C2342      H2348   1.112       .  S
C2343      H2349   1.081       .  S
C2343      C2344   1.370       .  D
C2344      C2468   1.529       .  S
C2345      H2350   1.083       .  S
C2345      C2346   1.359       .  D
C2351      C2353   1.523       .  S
C2351      C2355   1.523       .  S
C2351      C2354   1.629       .  S
C2352      C2440   1.629       .  S
C2352      C2356   1.527       .  S
C2352      C2358   1.517       .  S
C2352      C2357   1.622       .  S
C2353      C2361   1.377       .  A
C2353      C2356   1.402       .  A
C2354      C2365   1.427       .  A
C2354      C2357   1.447       .  A
C2355      C2369   1.379       .  A
C2355      C2358   1.403       .  A
C2356      C2359   1.380       .  A
C2357      C2363   1.422       .  A
C2358      C2366   1.373       .  A
C2359      N2360   1.349       .  A
C2359      H2372   1.075       .  S
N2360      C2393   1.439       .  S
N2360      C2361   1.347       .  A
C2361      H2362   1.080       .  S
C2363      N2364   1.383       .  A
C2363      H2373   1.081       .  S
N2364      C2365   1.387       .  A
C2365      H2371   1.082       .  S
C2366      N2367   1.342       .  A
C2366      H2368   1.080       .  S
N2367      C2381   1.431       .  S
N2367      C2369   1.346       .  A
C2369      H2370   1.077       .  S
C2374      C2375   1.541       .  S
C2374      C2380   1.550       .  S
C2374      C2378   1.553       .  S
C2374      C2584   1.501       .  S
C2375      H2382   1.087       .  S
C2375      C2376   1.340       .  D
C2376      C2377   1.522       .  S
C2376      N2461   1.421       .  S
C2377      C2381   1.520       .  S
C2377      C2379   1.553       .  S
C2377      H2383   1.112       .  S
C2378      H2384   1.078       .  S
C2378      C2379   1.370       .  D
C2379      C2399   1.521       .  S
C2380      H2385   1.086       .  S
C2380      C2381   1.354       .  D
C2386      C2387   1.552       .  S
C2386      C2392   1.558       .  S
C2386      C2390   1.534       .  S
C2386      C2577   1.505       .  S
C2387      H2394   1.086       .  S
C2387      C2388   1.351       .  D
C2388      C2389   1.528       .  S
C2388      N2484   1.431       .  S
C2389      C2393   1.526       .  S
C2389      C2391   1.555       .  S
C2389      H2395   1.112       .  S
C2390      H2396   1.079       .  S
C2390      C2391   1.356       .  D
C2392      H2397   1.084       .  S
C2392      C2393   1.360       .  D
C2398      C2400   1.516       .  S
C2398      C2402   1.552       .  S
C2398      C2401   1.635       .  S
C2399      C2403   1.510       .  S
C2399      C2405   1.526       .  S
C2399      C2404   1.548       .  S
C2400      C2408   1.367       .  A
C2400      C2403   1.376       .  A
C2401      C2412   1.434       .  A
C2401      C2404   1.424       .  A
C2402      C2416   1.391       .  A
C2402      C2405   1.373       .  A
C2403      C2406   1.368       .  A
C2404      C2410   1.386       .  A
C2405      C2413   1.375       .  A
C2406      N2407   1.344       .  A
C2406      H2419   1.077       .  S
N2407      C2423   1.427       .  S
N2407      C2408   1.348       .  A
C2408      H2409   1.067       .  S
C2410      N2411   1.358       .  A
C2410      H2420   1.079       .  S
N2411      C2412   1.390       .  A
C2412      H2418   1.081       .  S
C2413      N2414   1.355       .  A
C2413      H2415   1.068       .  S
N2414      C2435   1.473       .  S
N2414      C2416   1.373       .  A
C2416      H2417   1.076       .  S
C2421      C2422   1.546       .  S
C2421      C2427   1.552       .  S
C2421      C2425   1.558       .  S
C2421      C2564   1.510       .  S
C2422      H2429   1.087       .  S
C2422      C2423   1.337       .  D
C2423      C2424   1.521       .  S
C2424      C2428   1.520       .  S
C2424      C2426   1.557       .  S
C2424      H2430   1.112       .  S
C2425      H2431   1.080   1_554  S
C2425      C2426   1.369       .  D
C2426      C2445   1.530       .  S
C2427      H2432   1.084       .  S
C2427      C2428   1.358       .  D
C2433      C2434   1.546       .  S
C2433      C2439   1.567       .  S
C2433      C2437   1.550       .  S
C2433      C2554   1.547       .  S
C2434      H2441   1.086       .  S
C2434      C2435   1.351       .  D
C2435      C2436   1.580       .  S
C2436      C2440   1.619       .  S
C2436      C2438   1.607       .  S
C2436      H2442   1.108       .  S
C2437      H2443   1.078       .  S
C2437      C2438   1.352       .  D
C2438      C2469   1.591       .  S
C2439      H2444   1.085       .  S
C2439      C2440   1.376       .  D
C2445      C2447   1.530       .  S
C2445      C2449   1.527       .  S
C2445      C2448   1.535       .  S
C2446      C2450   1.553       .  S
C2446      C2452   1.497       .  S
C2446      C2451   1.657       .  S
C2447      C2455   1.373       .  A
C2447      C2450   1.379       .  A
C2448      C2835   1.385   1_554  A
C2448      C2451   1.423       .  A
C2449      C2463   1.371       .  A
C2449      C2452   1.386       .  A
C2450      C2453   1.399       .  A
C2451      C2833   1.441   1_554  A
C2452      C2460   1.359       .  A
C2453      N2454   1.362       .  A
C2453      H2466   1.068       .  S
N2454      C2455   1.353       .  A
C2455      H2456   1.077       .  S
C2457      C2827   1.445       .  A
C2457      N2458   1.396       .  A
C2457      H2467   1.081       .  S
N2458      C2459   1.359       .  A
N2458      N2481   1.452       .  S
C2459      C2824   1.386       .  A
C2459      H2465   1.081       .  S
C2460      N2461   1.342       .  A
C2460      H2462   1.066       .  S
N2461      C2463   1.343       .  A
C2463      H2464   1.079       .  S
C2468      C2470   1.530       .  S
C2468      C2472   1.532       .  S
C2468      C2471   1.535       .  S
C2469      C2473   1.557       .  S
C2469      C2475   1.504       .  S
C2469      C2474   1.661       .  S
C2470      C2478   1.375       .  A
C2470      C2473   1.374       .  A
C2471      C2482   1.386       .  A
C2471      C2474   1.423       .  A
C2472      C2486   1.375       .  A
C2472      C2475   1.387       .  A
C2473      C2476   1.402       .  A
C2474      C2480   1.446       .  A
C2475      C2483   1.366       .  A
C2476      N2477   1.364       .  A
C2476      H2489   1.067       .  S
N2477      C2478   1.354       .  A
C2478      H2479   1.076       .  S
C2480      N2481   1.396       .  A
C2480      H2490   1.081       .  S
N2481      C2482   1.358       .  A
C2482      H2488   1.080       .  S
C2483      N2484   1.346       .  A
C2483      H2485   1.068       .  S
N2484      C2486   1.347       .  A
C2486      H2487   1.079       .  S
O2491     Zr2503   2.405   1_455  S
C2493      C3003   1.467       .  S
O2494     Zr2506   2.417       .  S
O2494      C2496   1.281       .  A
O2495     Zr2530   2.406       .  S
O2495      C2496   1.284       .  A
C2496      C2963   1.438       .  S
O2497     Zr2506   2.469   1_455  S
O2498      C2499   1.270       .  A
C2499      C2567   1.469       .  S
O2500     Zr2503   2.412       .  S
O2500      C2502   1.274       .  A
O2501      C2502   1.288       .  A
C2502      C2983   1.481       .  S
Zr2503     O2880   2.437       .  S
Zr2503     O2505   2.449       .  S
Zr2503     O2533   2.372       .  S
Zr2503     O2535   2.367   1_655  S
O2504     Zr2879   2.437   1_554  S
O2505      H2546   0.990       .  S
O2505      H2926   0.990       .  S
Zr2506     O2883   2.444       .  S
Zr2506     O2508   2.436       .  S
Zr2506     O2510   2.381       .  S
Zr2506     O2509   2.352   1_655  S
Zr2506     O2534   2.354   1_655  S
Zr2506     O2536   2.380       .  S
O2507     Zr2882   2.438       .  S
O2507      H2548   0.990       .  S
O2507      H2551   0.990       .  S
O2508      H2541   0.990       .  S
O2509     Zr2529   2.406       .  S
O2510     Zr2530   2.399       .  S
O2510      H2913   0.966   1_565  S
O2511     Zr2523   2.424       .  S
O2511      C2513   1.286       .  A
O2512      C2513   1.284       .  A
C2513      C2574   1.462       .  S
O2514     Zr2526   2.410   1_455  S
O2515      C2516   1.279       .  A
C2516      C2617   1.465       .  S
O2517     Zr2526   2.426       .  S
O2517      C2519   1.280       .  A
O2518     Zr2530   2.455       .  S
O2518      C2519   1.290       .  A
C2519      C2557   1.477       .  S
O2520     Zr2523   2.469   1_455  S
C2522      C2597   1.473       .  S
Zr2523     O2524   2.441       .  S
Zr2523     O2525   2.437       .  S
Zr2523     O2535   2.351   1_655  S
Zr2523     O2533   2.371       .  S
O2524      H2544   0.990       .  S
O2524      H2549   0.989       .  S
O2525      H2545   0.990       .  S
Zr2526     O2527   2.435       .  S
Zr2526     O2528   2.437       .  S
Zr2526     O2532   2.385   1_655  S
Zr2526     O2531   2.352       .  S
Zr2526     O2536   2.373       .  S
Zr2526     O2534   2.365   1_655  S
O2527      H2543   0.990       .  S
O2528      H2542   0.990       .  S
O2528      H2552   0.990       .  S
Zr2529     O2532   2.411       .  S
Zr2529     O2534   2.440       .  S
Zr2530     O2531   2.397       .  S
Zr2530     O2536   2.391       .  S
O2531      H2539   0.964       .  S
O2534      H2538   0.958       .  S
O2535      H2540   0.957       .  S
H2537      O2886   0.965   1_545  S
H2550      O2881   0.990   1_455  S
C2553      C2554   1.417       .  A
C2553      C2558   1.401       .  A
C2553      H2560   1.078       .  S
C2554      C2555   1.416       .  A
C2555      C2556   1.403       .  A
C2555      F2562   1.358       .  S
C2556      C2557   1.403       .  A
C2556      H2561   1.084       .  S
C2557      C2558   1.401       .  A
C2558      F2559   1.358       .  S
C2563      C2564   1.416       .  A
C2563      C2568   1.391       .  A
C2563      H2570   1.080       .  S
C2564      C2565   1.409   1_554  A
C2565      C2942   1.390       .  A
C2565      F2572   1.356       .  S
C2566      C2941   1.388       .  A
C2566      C2567   1.408       .  A
C2566      H2571   1.083       .  S
C2567      C2944   1.395       .  A
C2568      C2943   1.396       .  A
C2568      F2569   1.355       .  S
C2573      C2574   1.404       .  A
C2573      C2578   1.387       .  A
C2573      H2580   1.083       .  S
C2574      C2575   1.405       .  A
C2575      C2576   1.386       .  A
C2575      F2582   1.358       .  S
C2576      C2577   1.406       .  A
C2576      H2581   1.083       .  S
C2577      C2578   1.404       .  A
C2578      F2579   1.356       .  S
C2583      C2584   1.408       .  A
C2583      C2588   1.399       .  A
C2583      H2590   1.079       .  S
C2584      C2585   1.413       .  A
C2585      C2586   1.374       .  A
C2585      F2592   1.360       .  S
C2586      C2587   1.389       .  A
C2586      H2967   1.085       .  S
C2587      C2588   1.399       .  A
C2587      C2872   1.436       .  S
C2588      F2589   1.357       .  S
H2591      C2962   1.085       .  S
C2593      C2594   1.406       .  A
C2593      C2598   1.391       .  A
C2593      H2600   1.081       .  S
C2594      C2595   1.419       .  A
C2595      C2596   1.391       .  A
C2595      F2602   1.355       .  S
C2596      C2597   1.395       .  A
C2596      H2601   1.081       .  S
C2597      C2598   1.410       .  A
C2603      C2604   1.400       .  A
C2603      C2608   1.399       .  A
C2603      H2610   1.081       .  S
C2604      C2605   1.422       .  A
C2605      C2606   1.395   1_554  A
C2605      F2612   1.358       .  S
C2606      C2607   1.397       .  A
C2606      H2987   1.083       .  S
C2607      C2608   1.415   1_556  A
C2607      C2878   1.483       .  S
C2608      F2609   1.354   1_554  S
H2611      C2982   1.083       .  S
C2613      C2614   1.406       .  A
C2613      C2618   1.390       .  A
C2613      H2620   1.084       .  S
C2614      C2615   1.411       .  A
C2615      C2616   1.392       .  A
C2615      F2622   1.356       .  S
C2616      C2617   1.402       .  A
C2616      H2621   1.082       .  S
C2617      C2618   1.406       .  A
C2618      F2619   1.357       .  S
C2623      C2624   1.405       .  A
C2623      C2628   1.390       .  A
C2623      H2630   1.084       .  S
C2624      C2625   1.407       .  A
C2625      C2626   1.390       .  A
C2625      F2632   1.356       .  S
C2626      C2627   1.401       .  A
C2627      C2628   1.409       .  A
C2627      C2869   1.463   1_554  S
C2628      F3005   1.357   1_554  S
F2629      C3004   1.356       .  S
C2633      C2634   1.549       .  S
C2633      C2639   1.547       .  S
C2633      C2637   1.543       .  S
C2633      C3000   1.518       .  S
C2634      H2641   1.087       .  S
C2634      C2635   1.350       .  D
C2635      C2636   1.554       .  S
C2635      N2830   1.467       .  S
C2636      C2640   1.620       .  S
C2636      C2638   1.611       .  S
C2636      H2642   1.110       .  S
C2637      H2643   1.078       .  S
C2637      C2638   1.346       .  D
C2638      C2680   1.572       .  S
C2639      H2644   1.085       .  S
C2639      C2640   1.364       .  D
C2640      C2646   1.598       .  S
C2645      C2675   1.605       .  S
C2645      C2647   1.520       .  S
C2645      C2649   1.516       .  S
C2645      C2648   1.623       .  S
C2646      C2650   1.514       .  S
C2646      C2652   1.517       .  S
C2646      C2651   1.616       .  S
C2647      C2655   1.378       .  A
C2647      C2650   1.396       .  A
C2648      C2651   1.442       .  A
C2649      C2663   1.379       .  A
C2649      C2652   1.395       .  A
C2650      C2653   1.377       .  A
C2652      C2660   1.377       .  A
C2653      N2654   1.345       .  A
C2653      H2666   1.077       .  S
N2654      C2722   1.427       .  S
N2654      C2655   1.343       .  A
C2655      H2656   1.080       .  S
C2657      N2658   1.380       .  A
C2657      H2667   1.081       .  S
N2658      C2659   1.388       .  A
N2658      N2740   1.465       .  S
C2659      H2665   1.081       .  S
C2660      N2661   1.341       .  A
C2660      H2662   1.078       .  S
N2661      C2804   1.427       .  S
N2661      C2663   1.345       .  A
C2663      H2664   1.079       .  S
C2668      C2669   1.547       .  S
C2668      C2674   1.555       .  S
C2668      C2672   1.541       .  S
C2668      C2990   1.522       .  S
C2669      H2676   1.087       .  S
C2669      C2670   1.349       .  D
C2670      C2671   1.552       .  S
C2670      N2853   1.464       .  S
C2671      C2675   1.622       .  S
C2671      C2673   1.611       .  S
C2671      H2677   1.110       .  S
C2672      H2678   1.073       .  S
C2672      C2673   1.343       .  D
C2673      C2774   1.575       .  S
C2674      H2679   1.085       .  S
C2674      C2675   1.368       .  D
C2680      C2682   1.518       .  S
C2680      C2684   1.556       .  S
C2680      C2683   1.632       .  S
C2681      C2767   1.515       .  S
C2681      C2685   1.503       .  S
C2681      C2687   1.516       .  S
C2681      C2686   1.556       .  S
C2682      C2690   1.367       .  A
C2682      C2685   1.378       .  A
C2683      C2694   1.434       .  A
C2683      C2686   1.423       .  A
C2684      C2698   1.392       .  A
C2684      C2687   1.372       .  A
C2685      C2688   1.366       .  A
C2686      C2692   1.390       .  A
C2687      C2695   1.371       .  A
C2688      N2689   1.341       .  A
C2688      H2701   1.076       .  S
N2689      C2717   1.423       .  S
N2689      C2690   1.347       .  A
C2690      H2691   1.068       .  S
N2693      N2787   1.445       .  S
C2695      N2696   1.351       .  A
C2695      H2697   1.067       .  S
N2696      C2705   1.470       .  S
N2696      C2698   1.375       .  A
C2698      H2699   1.076       .  S
C2703      C2704   1.540       .  S
C2703      C2709   1.573       .  S
C2703      C2707   1.536       .  S
C2703      C2980   1.526       .  S
C2704      H2711   1.086       .  S
C2704      C2705   1.348       .  D
C2705      C2706   1.579       .  S
C2706      C2710   1.630       .  S
C2706      C2708   1.610       .  S
C2706      H2712   1.109       .  S
C2707      H2713   1.084       .  S
C2707      C2708   1.348       .  D
C2708      C2822   1.588       .  S
C2709      H2714   1.083       .  S
C2709      C2710   1.377       .  D
C2710      C2727   1.636       .  S
C2715      C2716   1.546       .  S
C2715      C2721   1.550       .  S
C2715      C2719   1.554       .  S
C2715      C2970   1.508       .  S
C2716      H2723   1.087       .  S
C2716      C2717   1.336       .  D
C2717      C2718   1.517       .  S
C2718      C2722   1.523       .  S
C2718      C2720   1.551       .  S
C2718      H2724   1.112       .  S
C2719      H2725   1.079       .  S
C2719      C2720   1.367       .  D
C2720      C2844   1.522       .  S
C2721      H2726   1.083       .  S
C2721      C2722   1.359       .  D
C2727      C2729   1.521       .  S
C2727      C2731   1.529       .  S
C2727      C2730   1.628       .  S
C2728      C2816   1.626       .  S
C2728      C2732   1.523       .  S
C2728      C2734   1.519       .  S
C2728      C2733   1.621       .  S
C2729      C2737   1.377       .  A
C2729      C2732   1.401       .  A
C2730      C2741   1.425       .  A
C2730      C2733   1.448       .  A
C2731      C2745   1.384       .  A
C2731      C2734   1.405       .  A
C2732      C2735   1.379       .  A
C2733      C2739   1.421       .  A
C2734      C2742   1.375       .  A
C2735      N2736   1.349       .  A
C2735      H2748   1.074       .  S
N2736      C2769   1.438       .  S
N2736      C2737   1.345       .  A
C2737      H2738   1.080       .  S
C2739      N2740   1.382       .  A
C2739      H2749   1.081       .  S
N2740      C2741   1.386       .  A
C2741      H2747   1.082       .  S
C2742      N2743   1.343       .  A
C2742      H2744   1.080       .  S
N2743      C2757   1.434       .  S
N2743      C2745   1.349       .  A
C2745      H2746   1.080       .  S
C2750      C2751   1.542       .  S
C2750      C2756   1.552       .  S
C2750      C2754   1.554       .  S
C2750      C2960   1.504       .  S
C2751      H2758   1.087       .  S
C2751      C2752   1.342       .  D
C2752      C2753   1.521       .  S
C2752      N2837   1.423       .  S
C2753      C2757   1.520       .  S
C2753      C2755   1.554       .  S
C2753      H2759   1.112       .  S
C2754      H2760   1.079       .  S
C2754      C2755   1.371       .  D
C2755      C2775   1.525       .  S
C2756      H2761   1.086       .  S
C2756      C2757   1.355       .  D
C2762      C2763   1.553       .  S
C2762      C2768   1.557       .  S
C2762      C2766   1.530       .  S
C2762      C2953   1.502       .  S
C2763      H2770   1.086       .  S
C2763      C2764   1.352       .  D
C2764      C2765   1.527       .  S
C2764      N2860   1.432       .  S
C2765      C2769   1.526       .  S
C2765      C2767   1.557       .  S
C2765      H2771   1.112       .  S
C2766      H2772   1.079       .  S
C2766      C2767   1.352       .  D
C2768      H2773   1.084       .  S
C2768      C2769   1.362       .  D
C2774      C2776   1.514       .  S
C2774      C2778   1.555       .  S
C2774      C2777   1.633       .  S
C2775      C2779   1.512       .  S
C2775      C2781   1.528       .  S
C2775      C2780   1.549       .  S
C2776      C2784   1.364       .  A
C2776      C2779   1.378       .  A
C2777      C2788   1.433       .  A
C2777      C2780   1.424       .  A
C2778      C2792   1.393       .  A
C2778      C2781   1.376       .  A
C2779      C2782   1.371       .  A
C2780      C2786   1.385       .  A
C2781      C2789   1.377       .  A
C2782      N2783   1.343       .  A
C2782      H2795   1.078       .  S
N2783      C2799   1.425       .  S
N2783      C2784   1.344       .  A
C2784      H2785   1.065       .  S
C2786      N2787   1.360       .  A
C2786      H2796   1.079       .  S
N2787      C2788   1.390       .  A
C2788      H2794   1.081       .  S
C2789      N2790   1.355       .  A
C2789      H2791   1.068       .  S
N2790      C2811   1.474       .  S
N2790      C2792   1.374       .  A
C2792      H2793   1.077       .  S
C2797      C2798   1.547       .  S
C2797      C2803   1.547       .  S
C2797      C2801   1.561       .  S
C2797      C2940   1.507       .  S
C2798      H2805   1.087       .  S
C2798      C2799   1.336       .  D
C2799      C2800   1.519       .  S
C2800      C2804   1.521       .  S
C2800      C2802   1.556       .  S
C2800      H2806   1.112       .  S
C2801      H2807   1.079       .  S
C2801      C2802   1.370       .  D
C2802      C2821   1.529       .  S
C2803      H2808   1.085       .  S
C2803      C2804   1.354       .  D
C2809      C2810   1.548       .  S
C2809      C2815   1.566       .  S
C2809      C2813   1.547       .  S
C2809      C2930   1.544       .  S
C2810      H2817   1.086       .  S
C2810      C2811   1.353       .  D
C2811      C2812   1.580       .  S
C2812      C2816   1.617       .  S
C2812      C2814   1.607       .  S
C2812      H2818   1.108       .  S
C2813      H2819   1.075       .  S
C2813      C2814   1.350       .  D
C2814      C2845   1.588       .  S
C2815      H2820   1.085       .  S
C2815      C2816   1.375       .  D
C2821      C2823   1.533       .  S
C2821      C2825   1.528       .  S
C2821      C2824   1.533       .  S
C2822      C2826   1.552       .  S
C2822      C2828   1.495       .  S
C2822      C2827   1.664       .  S
C2823      C2831   1.373       .  A
C2823      C2826   1.379       .  A
C2824      C2827   1.424       .  A
C2825      C2839   1.372       .  A
C2825      C2828   1.379       .  A
C2826      C2829   1.400       .  A
C2828      C2836   1.355       .  A
C2829      N2830   1.363       .  A
C2829      H2842   1.068       .  S
N2830      C2831   1.353       .  A
C2831      H2832   1.077       .  S
C2833      N2834   1.393       .  A
C2833      H2843   1.081       .  S
N2834      C2835   1.359       .  A
N2834      N2857   1.449       .  S
C2835      H2841   1.081       .  S
C2836      N2837   1.343       .  A
C2836      H2838   1.062       .  S
N2837      C2839   1.346       .  A
C2839      H2840   1.079       .  S
C2844      C2846   1.524       .  S
C2844      C2848   1.531       .  S
C2844      C2847   1.530       .  S
C2845      C2849   1.555       .  S
C2845      C2851   1.509       .  S
C2845      C2850   1.660       .  S
C2846      C2854   1.371       .  A
C2846      C2849   1.371       .  A
C2847      C2858   1.383       .  A
C2847      C2850   1.422       .  A
C2848      C2862   1.375       .  A
C2848      C2851   1.389       .  A
C2849      C2852   1.399       .  A
C2850      C2856   1.444       .  A
C2851      C2859   1.369       .  A
C2852      N2853   1.363       .  A
C2852      H2865   1.066       .  S
N2853      C2854   1.352       .  A
C2854      H2855   1.076       .  S
C2856      N2857   1.394       .  A
C2856      H2866   1.081       .  S
N2857      C2858   1.355       .  A
C2858      H2864   1.079       .  S
C2859      N2860   1.347       .  A
C2859      H2861   1.070       .  S
N2860      C2862   1.346       .  A
C2862      H2863   1.079       .  S
O2867     Zr2879   2.418   1_455  S
O2870     Zr2882   2.411       .  S
O2870      C2872   1.280       .  A
O2871     Zr2906   2.411       .  S
O2871      C2872   1.284   1_556  A
O2873     Zr2882   2.459   1_455  S
O2874      C2875   1.269   1_556  A
C2875      C2943   1.473       .  S
O2876     Zr2879   2.418       .  S
O2876      C2878   1.277       .  A
O2877      C2878   1.289       .  A
Zr2879     O2881   2.447       .  S
Zr2879     O2909   2.377       .  S
Zr2879     O2911   2.365   1_655  S
O2881      H2922   0.990       .  S
Zr2882     O2884   2.437       .  S
Zr2882     O2886   2.388   1_554  S
Zr2882     O2885   2.354   1_654  S
Zr2882     O2910   2.353   1_654  S
Zr2882     O2912   2.367   1_554  S
O2883      H2924   0.990       .  S
O2883      H2927   0.990       .  S
O2884      H2917   0.990       .  S
O2885     Zr2905   2.401       .  S
O2886     Zr2906   2.400       .  S
O2887     Zr2899   2.413       .  S
O2887      C2889   1.284       .  A
O2888      C2889   1.287       .  A
C2889      C2950   1.465       .  S
O2890     Zr2902   2.414   1_455  S
O2891      C2892   1.279       .  A
C2892      C2993   1.462       .  S
O2893     Zr2902   2.418       .  S
O2893      C2895   1.276       .  A
O2894     Zr2906   2.451       .  S
O2894      C2895   1.287       .  A
C2895      C2933   1.474       .  S
O2896     Zr2899   2.463   1_455  S
C2898      C2973   1.474       .  S
Zr2899     O2900   2.438       .  S
Zr2899     O2901   2.439       .  S
Zr2899     O2911   2.345   1_655  S
Zr2899     O2909   2.368       .  S
O2900      H2920   0.990       .  S
O2900      H2925   0.991       .  S
O2901      H2921   0.990       .  S
Zr2902     O2903   2.436       .  S
Zr2902     O2904   2.441       .  S
Zr2902     O2908   2.386   1_655  S
Zr2902     O2907   2.362       .  S
Zr2902     O2912   2.370       .  S
Zr2902     O2910   2.367   1_655  S
O2903      H2919   0.990       .  S
O2904      H2918   0.990       .  S
O2904      H2928   0.990       .  S
Zr2905     O2908   2.411       .  S
Zr2905     O2910   2.428       .  S
Zr2906     O2907   2.401       .  S
Zr2906     O2912   2.384       .  S
O2907      H2915   0.965       .  S
O2910      H2914   0.965       .  S
O2911      H2916   0.957       .  S
C2929      C2930   1.418       .  A
C2929      C2934   1.400       .  A
C2929      H2936   1.077       .  S
C2930      C2931   1.412       .  A
C2931      C2932   1.401       .  A
C2931      F2938   1.357       .  S
C2932      C2933   1.402       .  A
C2932      H2937   1.084       .  S
C2933      C2934   1.400       .  A
C2934      F2935   1.358       .  S
C2939      C2940   1.419       .  A
C2939      C2944   1.391       .  A
C2939      H2946   1.081       .  S
C2940      C2941   1.405       .  A
C2941      F2948   1.354       .  S
C2942      C2943   1.408   1_556  A
C2942      H2947   1.083       .  S
C2944      F2945   1.357       .  S
C2949      C2950   1.408       .  A
C2949      C2954   1.388       .  A
C2949      H2956   1.083       .  S
C2950      C2951   1.403       .  A
C2951      C2952   1.386       .  A
C2951      F2958   1.357       .  S
C2952      C2953   1.406       .  A
C2952      H2957   1.083       .  S
C2953      C2954   1.403       .  A
C2954      F2955   1.357       .  S
C2959      C2960   1.410       .  A
C2959      C2964   1.402       .  A
C2959      H2966   1.080       .  S
C2960      C2961   1.413       .  A
C2961      C2962   1.373       .  A
C2961      F2968   1.360       .  S
C2962      C2963   1.388       .  A
C2963      C2964   1.401       .  A
C2964      F2965   1.357       .  S
C2969      C2970   1.408       .  A
C2969      C2974   1.392       .  A
C2969      H2976   1.081       .  S
C2970      C2971   1.416       .  A
C2971      C2972   1.389       .  A
C2971      F2978   1.354       .  S
C2972      C2973   1.394       .  A
C2972      H2977   1.081       .  S
C2973      C2974   1.411       .  A
C2979      C2980   1.400       .  A
C2979      C2984   1.398       .  A
C2979      H2986   1.080       .  S
C2980      C2981   1.422       .  A
C2981      C2982   1.395       .  A
C2981      F2988   1.358       .  S
C2982      C2983   1.395       .  A
C2983      C2984   1.415       .  A
C2984      F2985   1.352       .  S
C2989      C2990   1.408       .  A
C2989      C2994   1.391       .  A
C2989      H2996   1.084       .  S
C2990      C2991   1.415       .  A
C2991      C2992   1.390       .  A
C2991      F2998   1.354       .  S
C2992      C2993   1.399       .  A
C2992      H2997   1.082       .  S
C2993      C2994   1.404       .  A
C2994      F2995   1.357       .  S
C2999      C3000   1.406       .  A
C2999      C3004   1.390       .  A
C2999      H3006   1.084       .  S
C3000      C3001   1.408       .  A
C3001      C3002   1.392       .  A
C3001      F3008   1.356       .  S
C3002      C3003   1.402       .  A
C3003      C3004   1.407       .  A
