geometry optimzed in LAMMPS
_audit_creation_date              2020-12-01 
_audit_creation_method            'lammps2cif' 
_symmetry_space_group_name_H-M    'P1' 
_symmetry_Int_Tables_number       1 
_symmetry_cell_setting            triclinic 
loop_ 
_symmetry_equiv_pos_as_xyz 
  x,y,z 
_cell_length_a                    27.25554318 
_cell_length_b                    27.256865209475063 
_cell_length_c                    28.42218628669176 
_cell_angle_alpha                 89.99045722038481 
_cell_angle_beta                  89.98890807176019 
_cell_angle_gamma                 89.99272903143802 
loop_ 
_atom_site_label 
_atom_site_type_symbol 
_atom_site_fract_x 
_atom_site_fract_y 
_atom_site_fract_z 
_atom_site_charge 
N1          N  0.43791194  0.59200248  0.45054937    -0.04200
N2          N  0.42846472  0.62558427  0.41829295    -0.56400
N3          N  0.40409239  0.55747238  0.55847266    -0.03900
N4          N  0.37089613  0.56692173  0.59116504    -0.58500
N5          N  0.43821888  0.59169489  0.55832413    -0.03500
N6          N  0.42896544  0.62503122  0.59085734    -0.56300
N7          N  0.40371049  0.55786388  0.45046987    -0.03200
N8          N  0.37025359  0.56761159  0.41811172    -0.58800
C9          C  0.38654871  0.60959939  0.39815772     0.97900
C10         C  0.38725421  0.60881488  0.61124372     0.97700
N11         N  0.43924938  0.40692214  0.55799522    -0.04400
N12         N  0.43067115  0.37380409  0.59093644    -0.56900
N13         N  0.40472777  0.44105454  0.44995340    -0.02500
N14         N  0.37180691  0.43150829  0.41704580    -0.58200
N15         N  0.43925127  0.40722581  0.44995786    -0.04400
N16         N  0.43053783  0.37406258  0.41710429    -0.57200
N17         N  0.40483593  0.44084149  0.55820236    -0.02200
N18         N  0.37212810  0.43145526  0.59133024    -0.58300
Mn19       Mn  0.40295420  0.49924859  0.50426315     1.18400
C20         C  0.38904034  0.38990265  0.61160079     1.00000
C21         C  0.38871933  0.38998100  0.39667627     1.00700
N22         N  0.55437803  0.59252158  0.55831691    -0.04500
N23         N  0.56339859  0.62572511  0.59110494    -0.60800
N24         N  0.58853522  0.55811896  0.45017230    -0.03300
N25         N  0.62143464  0.56705171  0.41712936    -0.61400
N26         N  0.55421485  0.59212446  0.45000273    -0.04000
N27         N  0.56310432  0.62491467  0.41681047    -0.61000
N28         N  0.58863891  0.55846218  0.55841351    -0.02900
N29         N  0.62165197  0.56781190  0.59126823    -0.61700
Mn30       Mn  0.49620140  0.59331057  0.50427053     1.10700
C31         C  0.60514968  0.60952011  0.61155319     1.01200
C32         C  0.60480100  0.60845513  0.39644098     1.01300
N33         N  0.55541435  0.40780976  0.45006897    -0.04000
N34         N  0.56499765  0.37460792  0.41746360    -0.59400
N35         N  0.58912140  0.44208160  0.55840793    -0.03300
N36         N  0.62203535  0.43318563  0.59145931    -0.56100
N37         N  0.55526324  0.40762532  0.55816580    -0.04600
N38         N  0.56445877  0.37458449  0.59103933    -0.58900
N39         N  0.58944541  0.44208801  0.45023576    -0.03600
N40         N  0.62287575  0.43289678  0.41771831    -0.56100
Mn41       Mn  0.49727443  0.40616174  0.50401238     1.20200
Mn42       Mn  0.59019895  0.50022258  0.50434763     1.10100
Cl43       Cl  0.49661099  0.49974734  0.50420535    -0.84100
C44         C  0.60683044  0.39104097  0.39739684     0.98300
C45         C  0.60587103  0.39131584  0.61167714     0.98100
C46         C  0.74343485  0.74323571  0.76068720     0.88400
C47         C  0.77727737  0.71376373  0.79353937    -0.51900
C48         C  0.80596398  0.74274751  0.82139448     0.11300
C49         C  0.79842422  0.79793789  0.81392433     0.22200
C50         C  0.71416625  0.77744576  0.79338401    -0.52600
C51         C  0.74334463  0.80600990  0.82116221     0.11400
C52         C  0.77786768  0.77740064  0.73291856    -0.52100
C53         C  0.80647359  0.80608220  0.76114827     0.12000
H54         H  0.77830180  0.67394311  0.79478309     0.16500
H55         H  0.82190811  0.82137306  0.83670556     0.02200
H56         H  0.67435425  0.77902217  0.79434854     0.16800
H57         H  0.77907279  0.77914056  0.69475044     0.16600
C58         C  0.74271397  0.25763745  0.76160151     0.88400
C59         C  0.77682278  0.22358374  0.73336878    -0.51900
C60         C  0.80567395  0.19476220  0.76121918     0.11300
C61         C  0.79797668  0.20242873  0.81406410     0.22200
C62         C  0.71359969  0.22333293  0.79432153    -0.52600
C63         C  0.74291637  0.19442769  0.82164838     0.11400
C64         C  0.77696293  0.28680475  0.79428398    -0.52100
C65         C  0.80583017  0.25751107  0.82167107     0.12000
H66         H  0.77796865  0.22233535  0.69518190     0.16500
H67         H  0.82162518  0.17878791  0.83650571     0.02200
H68         H  0.67379118  0.22179533  0.79548480     0.16800
H69         H  0.77835476  0.32661456  0.79553299     0.16600
C70         C  0.25156219  0.74666015  0.75852210     0.88400
C71         C  0.28016798  0.78142788  0.79105233    -0.51900
C72         C  0.25042678  0.80975419  0.81844148     0.11300
C73         C  0.19544941  0.80100084  0.81097847     0.22200
C74         C  0.21791362  0.71700566  0.79146548    -0.52600
C75         C  0.18861854  0.74580675  0.81895139     0.11400
C76         C  0.21688366  0.78006869  0.73025039    -0.52100
C77         C  0.18752285  0.80842697  0.75805341     0.12000
H78         H  0.31995914  0.78328288  0.79247837     0.16500
H79         H  0.17152372  0.82431194  0.83346123     0.02200
H80         H  0.21757380  0.67719291  0.79312583     0.16800
H81         H  0.21574491  0.78123475  0.69205867     0.16600
C82         C  0.25129855  0.25460090  0.75881027     0.88400
C83         C  0.21634827  0.28346013  0.79110865    -0.51900
C84         C  0.18707867  0.25391123  0.81786848     0.11300
C85         C  0.19524477  0.19891707  0.80998559     0.22200
C86         C  0.27989803  0.22026504  0.79175865    -0.52600
C87         C  0.25022829  0.19113276  0.81838704     0.11400
C88         C  0.21785295  0.22067660  0.72976053    -0.52100
C89         C  0.18847088  0.19170167  0.75694499     0.12000
H90         H  0.21502268  0.32325240  0.79277733     0.16500
H91         H  0.17130670  0.17505384  0.83192551     0.02200
H92         H  0.31968556  0.21904793  0.79378023     0.16800
H93         H  0.21726454  0.21987518  0.69155110     0.16600
N94         N  0.91955437  0.00124120  0.72219179    -0.34700
N95         N  0.99559258  0.92542911  0.72393573    -0.55300
N96         N  0.07183618  0.00060196  0.71899208    -0.34700
N97         N  0.99601119  0.07652729  0.72313555    -0.55300
C98         C  0.89208542  0.96130667  0.73260083     0.28900
C99         C  0.89237225  0.04141572  0.73243440     0.28900
C100        C  0.09945244  0.96056188  0.72865061     0.28900
C101        C  0.09966251  0.04059390  0.72813212     0.28900
C102        C  0.95561793  0.89635159  0.71999543     0.37500
C103        C  0.03518258  0.89601857  0.71865527     0.37500
C104        C  0.95624303  0.10590025  0.71924610     0.37500
C105        C  0.03579782  0.10555468  0.71748413     0.37500
C106        C  0.84637061  0.97632205  0.74864818    -0.20000
C107        C  0.84655521  0.02678638  0.74856815    -0.20000
C108        C  0.14582882  0.97533053  0.74301534    -0.20000
C109        C  0.14596147  0.02573596  0.74270073    -0.20000
C110        C  0.96993687  0.84815045  0.71248718    -0.21100
C111        C  0.02028349  0.84794106  0.71168156    -0.21100
C112        C  0.97087357  0.15394661  0.71138415    -0.21100
C113        C  0.02123388  0.15372558  0.71028109    -0.21100
C114        C  0.90664679  0.91173011  0.72722150    -0.16400
C115        C  0.90722665  0.09086371  0.72678303    -0.16400
C116        C  0.08497334  0.09010323  0.72293861    -0.16400
C117        C  0.08447025  0.91107435  0.72412128    -0.16400
H118        H  0.81605548  0.95335020  0.75961864     0.16500
H119        H  0.81639449  0.05000685  0.75946226     0.16500
H120        H  0.17640378  0.95223753  0.75304089     0.16500
H121        H  0.17666717  0.04877374  0.75244965     0.16500
H122        H  0.94656699  0.81626437  0.70891563     0.14800
H123        H  0.04330149  0.81589438  0.70735436     0.14800
H124        H  0.94771354  0.18599092  0.70777420     0.14800
H125        H  0.04448684  0.18555809  0.70567256     0.14800
H126        H  0.95424585  0.00106689  0.70730985     0.28000
H127        H  0.03659802  0.00065126  0.70533868     0.28000
C128        C  0.74230816  0.74382982  0.24862216     0.88400
C129        C  0.71285440  0.77807949  0.21613221    -0.51900
C130        C  0.74190746  0.80649059  0.18807933     0.11300
C131        C  0.79702846  0.79824520  0.19492595     0.22200
C132        C  0.77586159  0.71420706  0.21566358    -0.52600
C133        C  0.80453387  0.74305078  0.18769370     0.10600
C134        C  0.77702507  0.77788492  0.27611583    -0.52100
C135        C  0.80548727  0.80637122  0.24758417     0.12000
H136        H  0.67304083  0.77983661  0.21554364     0.16500
H137        H  0.82046567  0.82156399  0.17197275     0.02200
H138        H  0.77715214  0.67438117  0.21485290     0.16800
H139        H  0.77870057  0.77953374  0.31427121     0.16600
C140        C  0.25246443  0.74681514  0.24915824     0.88400
C141        C  0.21955335  0.71667351  0.21606273    -0.51900
C142        C  0.19033497  0.74507744  0.18821815     0.11300
C143        C  0.19651642  0.80035225  0.19583017     0.22200
C144        C  0.28116203  0.78173143  0.21678647    -0.52600
C145        C  0.25147644  0.80965539  0.18893979     0.11400
C146        C  0.21704866  0.77998988  0.27686514    -0.52100
C147        C  0.18778133  0.80792017  0.24857493     0.12000
H148        H  0.21932471  0.67683894  0.21483224     0.16500
H149        H  0.17259790  0.82326285  0.17295944     0.02200
H150        H  0.32094346  0.78403636  0.21587162     0.16800
H151        H  0.21528729  0.78123604  0.31502970     0.16600
N152        N  0.99847809  0.70045545  0.07837685    -0.34700
N153        N  0.07423312  0.70426770  0.00461715    -0.55300
N154        N  0.99810457  0.70103453  0.93204689    -0.34700
N155        N  0.92239427  0.70382343  0.00559533    -0.55300
C156        C  0.03865681  0.70892817  0.10515582     0.28900
C157        C  0.95846989  0.70847464  0.10560304     0.28900
C158        C  0.03798875  0.70825939  0.90445382     0.28900
C159        C  0.95776875  0.70761655  0.90497315     0.28900
C160        C  0.10383339  0.70240555  0.04274976     0.37500
C161        C  0.10367496  0.70289202  0.96629284     0.37500
C162        C  0.89310954  0.70053401  0.04387464     0.37500
C163        C  0.89284028  0.70075265  0.96749614     0.37500
C164        C  0.02392149  0.72086992  0.15052651    -0.20000
C165        C  0.97349452  0.72058096  0.15079960    -0.20000
C166        C  0.02269360  0.71787474  0.85878517    -0.20000
C167        C  0.97228609  0.71748365  0.85911451    -0.20000
C168        C  0.15247868  0.69997924  0.02851467    -0.21100
C169        C  0.15237289  0.70034900  0.98022204    -0.21100
C170        C  0.84458010  0.69557224  0.02998480    -0.21100
C171        C  0.84440942  0.69576366  0.98171299    -0.21100
C172        C  0.08826103  0.70659220  0.09014571    -0.16400
C173        C  0.90877353  0.70544020  0.09110140    -0.16400
C174        C  0.90819926  0.70535654  0.92010105    -0.16400
C175        C  0.08780075  0.70704821  0.91897912    -0.16400
H176        H  0.04703912  0.72962119  0.18033140     0.16500
H177        H  0.95056111  0.72901851  0.18082953     0.16500
H178        H  0.04542275  0.72509559  0.82833003     0.16500
H179        H  0.94902710  0.72431559  0.82895320     0.16500
H180        H  0.18480814  0.69900494  0.05060987     0.14800
H181        H  0.18457281  0.69960498  0.95793538     0.14800
H182        H  0.81251203  0.69275221  0.05229631     0.14800
H183        H  0.81219228  0.69303619  0.95960784     0.14800
H184        H  0.99843027  0.68904371  0.04374371     0.28000
H185        H  0.99831714  0.69173113  0.96720271     0.28000
C186        C  0.25099181  0.25374433  0.24977241     0.88400
C187        C  0.27885424  0.21906114  0.21644807    -0.51900
C188        C  0.24849722  0.19108109  0.18931213     0.11300
C189        C  0.19378315  0.20004037  0.19783665     0.22200
C190        C  0.21693210  0.28380834  0.21760771    -0.52600
C191        C  0.18716432  0.25527022  0.19038605     0.11400
C192        C  0.21665063  0.22026223  0.27835394    -0.52100
C193        C  0.18676785  0.19222190  0.25079009     0.12000
H194        H  0.31859729  0.21705446  0.21431173     0.16500
H195        H  0.16934896  0.17704961  0.17555884     0.02200
H196        H  0.21689928  0.32362851  0.21601339     0.16800
H197        H  0.21621702  0.21869521  0.31654552     0.16600
N198        N  0.91983366  0.00004401  0.28471551    -0.34700
N199        N  0.99549884  0.92437897  0.28310062    -0.55300
N200        N  0.07156458  0.99936838  0.28765992    -0.34700
N201        N  0.99606741  0.07506558  0.28448019    -0.55300
C202        C  0.89302358  0.96021737  0.27267354     0.28900
C203        C  0.89335201  0.04018991  0.27295441     0.28900
C204        C  0.09855923  0.95938552  0.27631822     0.28900
C205        C  0.09890216  0.03939568  0.27729391     0.28900
C206        C  0.95553961  0.89568897  0.28881405     0.37500
C207        C  0.03499957  0.89524424  0.28975107     0.37500
C208        C  0.95630908  0.10414132  0.28970978     0.37500
C209        C  0.03574599  0.10385769  0.29140936     0.37500
C210        C  0.84857220  0.97522019  0.25364835    -0.20000
C211        C  0.84877631  0.02569915  0.25382640    -0.20000
C212        C  0.14394528  0.97419659  0.25933070    -0.20000
C213        C  0.14416820  0.02464040  0.25996556    -0.20000
C214        C  0.96970344  0.84798087  0.29899633    -0.21100
C215        C  0.02009964  0.84769141  0.29952789    -0.21100
C216        C  0.97077852  0.15176493  0.29982776    -0.21100
C217        C  0.02114856  0.15158527  0.30088596    -0.21100
C218        C  0.90690716  0.91083249  0.27998875    -0.16400
C219        C  0.90763523  0.08941334  0.28050918    -0.16400
C220        C  0.08470449  0.08877940  0.28427178    -0.16400
C221        C  0.08400631  0.90996731  0.28227774    -0.16400
H222        H  0.81905093  0.95222888  0.24088180     0.16500
H223        H  0.81943089  0.04902679  0.24122579     0.16500
H224        H  0.17384144  0.95109863  0.24757297     0.16500
H225        H  0.17425352  0.04778466  0.24875695     0.16500
H226        H  0.94620646  0.81643995  0.30426668     0.14800
H227        H  0.04313924  0.81591629  0.30534145     0.14800
H228        H  0.94752070  0.18355928  0.30468390     0.14800
H229        H  0.04438237  0.18320852  0.30671846     0.14800
H230        H  0.95333423  0.99980645  0.30206199     0.28000
H231        H  0.03725878  0.99932670  0.30349931     0.28000
N232        N  0.28995173  0.92434391  0.00375585    -0.34700
N233        N  0.28535868  0.00072222  0.07584504    -0.55300
N234        N  0.28895090  0.07650952  0.00316753    -0.34700
N235        N  0.28743742  0.00014229  0.93099253    -0.55300
C236        C  0.27970333  0.89689882  0.04217962     0.28900
C237        C  0.27989158  0.89665615  0.96544838     0.28900
C238        C  0.27846124  0.10438207  0.04126513     0.28900
C239        C  0.27999992  0.10405684  0.96451149     0.28900
C240        C  0.29050845  0.96115260  0.10407366     0.37500
C241        C  0.28920540  0.04065321  0.10378686     0.37500
C242        C  0.29251538  0.96025917  0.90320168     0.37500
C243        C  0.29263698  0.03975601  0.90284647     0.37500
C244        C  0.26407645  0.85069490  0.02810846    -0.20000
C245        C  0.26414531  0.85055730  0.97974839    -0.20000
C246        C  0.26388630  0.15073603  0.02662203    -0.20000
C247        C  0.26487020  0.15054302  0.97827516    -0.20000
C248        C  0.29728855  0.97602393  0.15027694    -0.21100
C249        C  0.29639796  0.02634840  0.15010377    -0.21100
C250        C  0.30071618  0.97459953  0.85704231    -0.21100
C251        C  0.30080573  0.02494630  0.85681981    -0.21100
C252        C  0.28486296  0.91191930  0.08955993    -0.16400
C253        C  0.28542974  0.91131514  0.91798649    -0.16400
C254        C  0.28573182  0.08888952  0.91719906    -0.16400
C255        C  0.28250154  0.08964161  0.08886409    -0.16400
H256        H  0.25334761  0.82026974  0.05032988     0.16500
H257        H  0.25353611  0.81998132  0.95767905     0.16500
H258        H  0.25334643  0.18152273  0.04845217     0.16500
H259        H  0.25521162  0.18117072  0.95586323     0.16500
H260        H  0.30145306  0.95300963  0.18105833     0.14800
H261        H  0.29984812  0.04971369  0.18071493     0.14800
H262        H  0.30516880  0.95123561  0.82654378     0.14800
H263        H  0.30534708  0.04800529  0.82611639     0.14800
H264        H  0.30469954  0.95935824  0.00372132     0.28000
H265        H  0.30295058  0.04121949  0.00353387     0.28000
N266        N  0.92256029  0.29859858  0.00519996    -0.34700
N267        N  0.99901820  0.29516592  0.07664835    -0.55300
N268        N  0.07413501  0.29555972  0.00363125    -0.34700
N269        N  0.99755459  0.29498639  0.93225296    -0.55300
C270        C  0.89630461  0.28637638  0.04387069     0.28900
C271        C  0.89554127  0.28574335  0.96721403     0.28900
C272        C  0.10111656  0.28320702  0.04181809     0.28900
C273        C  0.10027446  0.28276341  0.96503434     0.28900
C274        C  0.95972032  0.30309620  0.10459998     0.37500
C275        C  0.03915553  0.30153276  0.10381031     0.37500
C276        C  0.95760202  0.30205351  0.90498728     0.37500
C277        C  0.03706444  0.30063543  0.90408908     0.37500
C278        C  0.85179278  0.26610102  0.03030731    -0.20000
C279        C  0.85132565  0.26567418  0.98192946    -0.20000
C280        C  0.14532095  0.26292295  0.02731668    -0.20000
C281        C  0.14478449  0.26262428  0.97887663    -0.20000
C282        C  0.97489630  0.31441971  0.14986132    -0.21100
C283        C  0.02529995  0.31341238  0.14937351    -0.21100
C284        C  0.97173797  0.31230396  0.85916081    -0.21100
C285        C  0.02215321  0.31139354  0.85858440    -0.21100
C286        C  0.91071952  0.29466469  0.09094164    -0.16400
C287        C  0.90898788  0.29327448  0.91973809    -0.16400
C288        C  0.08577375  0.29042719  0.91778541    -0.16400
C289        C  0.08760548  0.29148606  0.08923304    -0.16400
H290        H  0.82266973  0.25285613  0.05288500     0.16500
H291        H  0.82176751  0.25205257  0.96010809     0.16500
H292        H  0.17493170  0.24970879  0.04931229     0.16500
H293        H  0.17391917  0.24912869  0.95644797     0.16500
H294        H  0.95203256  0.32133694  0.18028992     0.14800
H295        H  0.04899694  0.31945189  0.17937697     0.14800
H296        H  0.94818142  0.31816086  0.82901894     0.14800
H297        H  0.04513809  0.31645890  0.82790422     0.14800
H298        H  0.95599591  0.31689085  0.00476940     0.28000
H299        H  0.04074492  0.31388056  0.00391000     0.28000
C300        C  0.74377440  0.25667752  0.24793086     0.88400
C301        C  0.77806942  0.28702258  0.21628459    -0.51900
C302        C  0.80741063  0.25874826  0.18840579     0.11300
C303        C  0.79986144  0.20340810  0.19445610     0.22200
C304        C  0.71516694  0.22305361  0.21414123    -0.52600
C305        C  0.74494150  0.19513871  0.18627605     0.11400
C306        C  0.77785098  0.22209028  0.27550499    -0.52100
C307        C  0.80707866  0.19429264  0.24712218     0.12000
H308        H  0.77924675  0.32686119  0.21616547     0.16500
H309        H  0.82390420  0.18057131  0.17163282     0.02200
H310        H  0.67538762  0.22101814  0.21287289     0.16800
H311        H  0.77860357  0.21963424  0.31364912     0.16600
N312        N  0.70435079  0.00014223  0.07740906    -0.34700
N313        N  0.70749648  0.92402978  0.00452933    -0.55300
N314        N  0.70414222  0.99969552  0.93117842    -0.34700
N315        N  0.70768427  0.07569171  0.00402268    -0.55300
C316        C  0.71236112  0.96007045  0.10451247     0.28900
C317        C  0.71338581  0.04024984  0.10418134     0.28900
C318        C  0.71250235  0.95955240  0.90428586     0.28900
C319        C  0.71221412  0.03973031  0.90403002     0.28900
C320        C  0.70433364  0.89468054  0.04278836     0.37500
C321        C  0.70481091  0.89446378  0.96639906     0.37500
C322        C  0.70520990  0.10527593  0.04214015     0.37500
C323        C  0.70431273  0.10504467  0.96579447     0.37500
C324        C  0.72527680  0.97498187  0.14955125    -0.20000
C325        C  0.72599249  0.02541450  0.14931956    -0.20000
C326        C  0.72475188  0.97433252  0.85902189    -0.20000
C327        C  0.72456737  0.02476900  0.85886446    -0.20000
C328        C  0.70014273  0.84608576  0.02883630    -0.21100
C329        C  0.70047152  0.84594839  0.98056525    -0.21100
C330        C  0.70064042  0.15377139  0.02799892    -0.21100
C331        C  0.70002101  0.15362307  0.97975505    -0.21100
C332        C  0.70841453  0.91041606  0.09009961    -0.16400
C333        C  0.71041177  0.08987917  0.08942593    -0.16400
C334        C  0.70867673  0.08939352  0.91850702    -0.16400
C335        C  0.70924864  0.90994887  0.91903533    -0.16400
H336        H  0.73398745  0.95195945  0.17944400     0.16500
H337        H  0.73529335  0.04847794  0.17900849     0.16500
H338        H  0.73348343  0.95123272  0.82919316     0.16500
H339        H  0.73313346  0.04775544  0.82890582     0.16500
H340        H  0.69779385  0.81394607  0.05109955     0.14800
H341        H  0.69837360  0.81369032  0.95844774     0.14800
H342        H  0.69871544  0.18604371  0.05011013     0.14800
H343        H  0.69757112  0.18576673  0.95750964     0.14800
H344        H  0.69226617  0.00009632  0.04295863     0.28000
H345        H  0.69243294  0.99975817  0.96574492     0.28000
C346        C  0.71743675  0.12777366  0.12473548    -0.11400
C347        C  0.72725547  0.15917645  0.15314995    -0.12900
C348        C  0.84323785  0.27823330  0.15618584    -0.11400
C349        C  0.87405860  0.28857777  0.12742181    -0.12900
C350        C  0.84146606  0.15854273  0.26431019    -0.11400
C351        C  0.87115005  0.12737407  0.27385540    -0.12900
C352        C  0.12440078  0.28451908  0.12544983    -0.11400
C353        C  0.15360368  0.27430494  0.15576746    -0.12900
C354        C  0.26554690  0.15646456  0.15473408    -0.11400
C355        C  0.27527345  0.12659230  0.12489234    -0.12900
C356        C  0.15190041  0.15728195  0.26892268    -0.11400
C357        C  0.12170272  0.12653816  0.27852037    -0.12900
C358        C  0.12584649  0.71439540  0.12548786    -0.11400
C359        C  0.15607611  0.72560926  0.15450571    -0.12900
C360        C  0.26935234  0.84478832  0.15530154    -0.11400
C361        C  0.27892410  0.87503060  0.12579720    -0.12900
C362        C  0.12079874  0.87210597  0.27569757    -0.11400
C363        C  0.15159839  0.84198157  0.26595094    -0.12900
C364        C  0.87111394  0.71305213  0.12650087    -0.11400
C365        C  0.84007301  0.72405947  0.15486000    -0.12900
C366        C  0.71394042  0.87284428  0.12592495    -0.11400
C367        C  0.72343398  0.84198114  0.15494691    -0.12900
C368        C  0.84014016  0.84203339  0.26453805    -0.11400
C369        C  0.87002881  0.87316186  0.27367399    -0.12900
C370        C  0.12226440  0.12757988  0.72859974    -0.11400
C371        C  0.15315836  0.15753495  0.73836924    -0.12900
C372        C  0.27886332  0.12549275  0.88085263    -0.11400
C373        C  0.26835737  0.15580513  0.85171156    -0.12900
C374        C  0.15180795  0.27200270  0.85144698    -0.11400
C375        C  0.12191643  0.28253111  0.88108242    -0.12900
C376        C  0.15464067  0.72678108  0.85343440    -0.11400
C377        C  0.12501703  0.71542875  0.88314100    -0.12900
C378        C  0.15205960  0.84293750  0.74008419    -0.11400
C379        C  0.12147362  0.87327909  0.73028398    -0.12900
C380        C  0.26838003  0.84454786  0.85231644    -0.11400
C381        C  0.27855614  0.87448010  0.88189441    -0.12900
C382        C  0.71487657  0.12710131  0.88289974    -0.11400
C383        C  0.72466546  0.15840976  0.85439767    -0.12900
C384        C  0.87052834  0.12877423  0.73356603    -0.11400
C385        C  0.84046932  0.15958180  0.74340355    -0.12900
C386        C  0.87180194  0.28617447  0.88392634    -0.11400
C387        C  0.84121735  0.27587592  0.85492315    -0.12900
C388        C  0.72498541  0.84137768  0.85446942    -0.11400
C389        C  0.71531491  0.87222106  0.88345147    -0.12900
C390        C  0.84031866  0.72389031  0.85548944    -0.11400
C391        C  0.87044470  0.71290160  0.88476602    -0.12900
C392        C  0.84042508  0.84237733  0.74374349    -0.11400
C393        C  0.86982260  0.87390356  0.73405539    -0.12900
C394        C  0.63205457  0.63650385  0.64674467    -0.16600
C395        C  0.65637348  0.65981077  0.67442856     0.07400
C396        C  0.68622778  0.68782490  0.70519686     0.09300
C397        C  0.71209644  0.71239120  0.73049415    -0.17500
C398        C  0.71138786  0.28872631  0.73172209    -0.16600
C399        C  0.68586792  0.31345111  0.70629197     0.07400
C400        C  0.65660365  0.34154689  0.67516235     0.09300
C401        C  0.63266918  0.36476259  0.64715309    -0.17500
C402        C  0.36034980  0.63626315  0.64597285    -0.16600
C403        C  0.33703516  0.66088734  0.67332258     0.07400
C404        C  0.30860991  0.69053360  0.70378711     0.09300
C405        C  0.28331564  0.71588728  0.72881824    -0.17500
C406        C  0.71132317  0.71295465  0.27895145    -0.16600
C407        C  0.68584238  0.68779299  0.30398100     0.07400
C408        C  0.65625089  0.65897878  0.33414813     0.09300
C409        C  0.63186937  0.63530669  0.36141021    -0.17500
C410        C  0.28323877  0.28589359  0.72986382    -0.16600
C411        C  0.30936179  0.31081872  0.70525234     0.07400
C412        C  0.33894787  0.33929331  0.67481696     0.09300
C413        C  0.36273841  0.36292474  0.64706133    -0.17500
C414        C  0.35984728  0.63693246  0.36322368    -0.16600
C415        C  0.33687198  0.66140945  0.33551091     0.07400
C416        C  0.30890201  0.69099353  0.30464897     0.09300
C417        C  0.28397198  0.71634921  0.27931904    -0.17500
C418        C  0.63424987  0.36392266  0.36277071    -0.16600
C419        C  0.65822614  0.34005547  0.33531150     0.07400
C420        C  0.68707768  0.31142732  0.30429487     0.09300
C421        C  0.71224507  0.28679071  0.27848344    -0.17500
C422        C  0.28342590  0.28417267  0.27915599    -0.16600
C423        C  0.30938457  0.30919030  0.30388728     0.07400
C424        C  0.33857641  0.33834328  0.33415803     0.09300
C425        C  0.36217847  0.36260559  0.36159739    -0.17500
loop_ 
_geom_bond_atom_site_label_1 
_geom_bond_atom_site_label_2 
_geom_bond_distance 
_geom_bond_site_symmetry_2 
_ccdc_geom_bond_type 
N1            N2   1.321       .  A
N1            N7   1.317       .  A
N1          Mn30   2.204       .  S
N2            C9   1.350       .  A
N3            N5   1.317       .  A
N3            N4   1.322       .  A
N3          Mn19   2.212       .  S
N4           C10   1.352       .  A
N5            N6   1.321       .  A
N5          Mn30   2.204       .  S
N6           C10   1.350       .  A
N7            N8   1.322       .  A
N7          Mn19   2.211       .  S
N8            C9   1.352       .  A
C9          C414   1.439       .  S
C10         C402   1.439       .  S
N11          N17   1.317       .  A
N11          N12   1.321       .  A
N11         Mn41   2.203       .  S
N12          C20   1.351       .  A
N13          N14   1.322       .  A
N13          N15   1.317       .  A
N13         Mn19   2.214       .  S
N14          C21   1.352       .  A
N15          N16   1.321       .  A
N15         Mn41   2.205       .  S
N16          C21   1.351       .  A
N17          N18   1.322       .  A
N17         Mn19   2.211       .  S
N18          C20   1.352       .  A
Mn19        Cl43   2.553       .  S
C20         C413   1.439       .  S
C21         C425   1.440       .  S
N22          N23   1.322       .  A
N22          N28   1.317       .  A
N22         Mn30   2.208       .  S
N23          C31   1.352       .  A
N24          N26   1.317       .  A
N24          N25   1.321       .  A
N24         Mn42   2.205       .  S
N25          C32   1.351       .  A
N26          N27   1.322       .  A
N26         Mn30   2.209       .  S
N27          C32   1.352       .  A
N28          N29   1.322       .  A
N28         Mn42   2.210       .  S
N29          C31   1.352       .  A
Mn30        Cl43   2.550       .  S
C31         C394   1.442       .  S
C32         C409   1.439       .  S
N33          N34   1.321       .  A
N33          N39   1.317       .  A
N33         Mn41   2.205       .  S
N34          C44   1.351       .  A
N35          N36   1.321       .  A
N35          N37   1.317       .  A
N35         Mn42   2.207       .  S
N36          C45   1.351       .  A
N37          N38   1.322       .  A
N37         Mn41   2.207       .  S
N38          C45   1.351       .  A
N39          N40   1.322       .  A
N39         Mn42   2.209       .  S
N40          C44   1.352       .  A
Mn41        Cl43   2.551       .  S
Mn42        Cl43   2.551       .  S
C44         C418   1.440       .  S
C45         C401   1.440       .  S
C46          C47   1.539       .  S
C46          C52   1.540       .  S
C46          C50   1.539       .  S
C46         C397   1.474       .  S
C47          H54   1.086       .  S
C47          C48   1.365       .  D
C48          C49   1.533       .  S
C48         C390   1.442       .  S
C49          C53   1.532       .  S
C49          C51   1.531       .  S
C49          H55   1.112       .  S
C50          H56   1.086       .  S
C50          C51   1.365       .  D
C51         C388   1.441       .  S
C52          H57   1.086       .  S
C52          C53   1.365       .  D
C53         C392   1.442       .  S
C58          C59   1.539       .  S
C58          C64   1.539       .  S
C58          C62   1.539       .  S
C58         C398   1.472       .  S
C59          H66   1.086       .  S
C59          C60   1.365       .  D
C60          C61   1.531       .  S
C60         C385   1.441       .  S
C61          C65   1.532       .  S
C61          C63   1.532       .  S
C61          H67   1.112       .  S
C62          H68   1.086       .  S
C62          C63   1.365       .  D
C63         C383   1.441       .  S
C64          H69   1.086       .  S
C64          C65   1.365       .  D
C65         C387   1.440       .  S
C70          C71   1.537       .  S
C70          C76   1.539       .  S
C70          C74   1.540       .  S
C70         C405   1.471       .  S
C71          H78   1.086       .  S
C71          C72   1.363       .  D
C72          C73   1.532       .  S
C72         C380   1.438       .  S
C73          C77   1.533       .  S
C73          C75   1.533       .  S
C73          H79   1.112       .  S
C74          H80   1.086       .  S
C74          C75   1.365       .  D
C75         C376   1.445       .  S
C76          H81   1.086       .  S
C76          C77   1.365       .  D
C77         C378   1.442       .  S
C82          C83   1.539       .  S
C82          C88   1.539       .  S
C82          C86   1.536       .  S
C82         C410   1.470       .  S
C83          H90   1.086       .  S
C83          C84   1.365       .  D
C84          C85   1.532       .  S
C84         C374   1.441       .  S
C85          C89   1.532       .  S
C85          C87   1.532       .  S
C85          H91   1.112       .  S
C86          H92   1.086       .  S
C86          C87   1.363       .  D
C87         C373   1.438       .  S
C88          H93   1.086       .  S
C88          C89   1.364       .  D
C89         C371   1.440       .  S
N94          C99   1.354       .  A
N94          C98   1.354   1_545  A
N94         H126   1.036       .  S
N95         C102   1.352       .  A
N95         C103   1.352   1_655  A
N96         C101   1.353       .  A
N96         C100   1.354   1_545  A
N96         H127   1.036       .  S
N97         C104   1.352       .  A
N97         C105   1.352   1_655  A
C98         C106   1.388       .  A
C98         C114   1.417       .  A
C99         C115   1.416       .  A
C99         C107   1.389       .  A
C100        C108   1.388       .  A
C100        C117   1.415       .  A
C101        C116   1.415       .  A
C101        C109   1.388       .  A
C102        C114   1.414       .  A
C102        C110   1.387       .  A
C103        C117   1.413       .  A
C103        C111   1.386       .  A
C104        C112   1.387       .  A
C104        C115   1.414       .  A
C105        C113   1.387       .  A
C105        C116   1.413       .  A
C106        C107   1.376   1_565  A
C106        H118   1.083       .  S
C107        H119   1.083       .  S
C108        C109   1.374   1_565  A
C108        H120   1.082       .  S
C109        H121   1.082       .  S
C110        C111   1.372   1_655  A
C110        H122   1.082       .  S
C111        H123   1.082       .  S
C112        C113   1.373   1_655  A
C112        H124   1.082       .  S
C113        H125   1.082       .  S
C114        C393   1.452       .  S
C115        C384   1.451       .  S
C116        C370   1.450       .  S
C117        C379   1.452       .  S
C128        C129   1.539       .  S
C128        C134   1.539       .  S
C128        C132   1.538       .  S
C128        C406   1.471       .  S
C129        H136   1.086       .  S
C129        C130   1.365       .  D
C130        C131   1.531       .  S
C130        C367   1.441       .  S
C131        C135   1.531       .  S
C131        C133   1.532       .  S
C131        H137   1.112       .  S
C132        H138   1.086       .  S
C132        C133   1.364       .  D
C133        C365   1.441       .  S
C134        H139   1.086       .  S
C134        C135   1.365       .  D
C135        C368   1.439       .  S
C140        C141   1.538       .  S
C140        C146   1.539       .  S
C140        C144   1.537       .  S
C140        C417   1.470       .  S
C141        H148   1.086       .  S
C141        C142   1.364       .  D
C142        C143   1.531       .  S
C142        C359   1.440       .  S
C143        C147   1.532       .  S
C143        C145   1.532       .  S
C143        H149   1.112       .  S
C144        H150   1.086       .  S
C144        C145   1.364       .  D
C145        C360   1.438       .  S
C146        H151   1.086       .  S
C146        C147   1.365       .  D
C147        C363   1.442       .  S
N152        C157   1.355       .  A
N152        C156   1.354   1_655  A
N152        H184   1.032       .  S
N153        C160   1.352       .  A
N153        C161   1.353   1_554  A
N154        C159   1.354       .  A
N154        C158   1.355   1_655  A
N154        H185   1.031       .  S
N155        C162   1.352       .  A
N155        C163   1.352   1_554  A
C156        C164   1.389       .  A
C156        C172   1.419       .  A
C157        C173   1.418       .  A
C157        C165   1.388       .  A
C158        C166   1.388       .  A
C158        C175   1.419       .  A
C159        C174   1.419       .  A
C159        C167   1.388       .  A
C160        C172   1.417       .  A
C160        C168   1.388       .  A
C161        C175   1.417       .  A
C161        C169   1.387       .  A
C162        C170   1.387       .  A
C162        C173   1.415       .  A
C163        C171   1.387       .  A
C163        C174   1.416       .  A
C164        C165   1.374   1_455  A
C164        H176   1.083       .  S
C165        H177   1.083       .  S
C166        C167   1.374   1_455  A
C166        H178   1.082       .  S
C167        H179   1.082       .  S
C168        C169   1.373   1_554  A
C168        H180   1.082       .  S
C169        H181   1.082       .  S
C170        C171   1.372   1_554  A
C170        H182   1.082       .  S
C171        H183   1.082       .  S
C172        C358   1.451       .  S
C173        C364   1.452       .  S
C174        C391   1.453       .  S
C175        C377   1.455       .  S
C186        C187   1.539       .  S
C186        C192   1.539       .  S
C186        C190   1.539       .  S
C186        C422   1.472       .  S
C187        H194   1.086       .  S
C187        C188   1.364       .  D
C188        C189   1.530       .  S
C188        C354   1.439       .  S
C189        C193   1.532       .  S
C189        C191   1.531       .  S
C189        H195   1.112       .  S
C190        H196   1.086       .  S
C190        C191   1.365       .  D
C191        C353   1.440       .  S
C192        H197   1.086       .  S
C192        C193   1.365       .  D
C193        C356   1.441       .  S
N198        C203   1.353       .  A
N198        C202   1.353   1_545  A
N198        H230   1.038   1_545  S
N199        C206   1.351       .  A
N199        C207   1.351   1_655  A
N200        C205   1.354   1_565  A
N200        C204   1.354       .  A
N200        H231   1.038       .  S
N201        C208   1.351       .  A
N201        C209   1.351   1_655  A
C202        C210   1.388       .  A
C202        C218   1.414       .  A
C203        C219   1.414       .  A
C203        C211   1.389       .  A
C204        C212   1.388       .  A
C204        C221   1.414       .  A
C205        C220   1.415       .  A
C205        C213   1.388       .  A
C206        C218   1.411       .  A
C206        C214   1.387       .  A
C207        C221   1.411       .  A
C207        C215   1.386       .  A
C208        C216   1.387       .  A
C208        C219   1.411       .  A
C209        C217   1.387       .  A
C209        C220   1.411       .  A
C210        C211   1.376   1_565  A
C210        H222   1.083       .  S
C211        H223   1.083       .  S
C212        C213   1.375   1_565  A
C212        H224   1.083       .  S
C213        H225   1.082       .  S
C214        C215   1.374   1_655  A
C214        H226   1.082       .  S
C215        H227   1.082       .  S
C216        C217   1.373   1_655  A
C216        H228   1.082       .  S
C217        H229   1.082       .  S
C218        C369   1.448       .  S
C219        C351   1.447       .  S
C220        C357   1.450       .  S
C221        C362   1.451       .  S
N232        C237   1.353   1_554  A
N232        C236   1.353       .  A
N232        H264   1.036       .  S
N233        C240   1.351   1_545  A
N233        C241   1.352       .  A
N234        C239   1.353   1_554  A
N234        C238   1.353       .  A
N234        H265   1.035       .  S
N235        C242   1.351   1_545  A
N235        C243   1.351       .  A
C236        C244   1.388       .  A
C236        C252   1.415       .  A
C237        C253   1.415       .  A
C237        C245   1.389       .  A
C238        C246   1.388       .  A
C238        C255   1.416       .  A
C239        C254   1.416       .  A
C239        C247   1.389       .  A
C240        C252   1.412       .  A
C240        C248   1.387       .  A
C241        C255   1.413       .  A
C241        C249   1.387       .  A
C242        C250   1.387       .  A
C242        C253   1.412       .  A
C243        C251   1.387       .  A
C243        C254   1.413       .  A
C244        C245   1.375   1_554  A
C244        H256   1.083       .  S
C245        H257   1.083       .  S
C246        C247   1.374   1_554  A
C246        H258   1.082       .  S
C247        H259   1.083       .  S
C248        C249   1.372   1_565  A
C248        H260   1.082       .  S
C249        H261   1.082       .  S
C250        C251   1.372   1_565  A
C250        H262   1.082       .  S
C251        H263   1.082       .  S
C252        C361   1.448       .  S
C253        C381   1.448       .  S
C254        C372   1.448       .  S
C255        C355   1.450       .  S
N266        C271   1.353   1_554  A
N266        C270   1.353       .  A
N266        H298   1.039       .  S
N267        C274   1.351       .  A
N267        C275   1.350   1_655  A
N268        C273   1.354   1_554  A
N268        C272   1.354       .  A
N268        H299   1.038       .  S
N269        C276   1.350       .  A
N269        C277   1.350   1_655  A
C270        C278   1.388       .  A
C270        C286   1.413       .  A
C271        C287   1.413       .  A
C271        C279   1.388       .  A
C272        C280   1.388       .  A
C272        C289   1.415       .  A
C273        C288   1.415       .  A
C273        C281   1.388       .  A
C274        C286   1.410       .  A
C274        C282   1.386       .  A
C275        C289   1.411       .  A
C275        C283   1.387       .  A
C276        C284   1.387       .  A
C276        C287   1.410       .  A
C277        C285   1.387       .  A
C277        C288   1.411       .  A
C278        C279   1.375   1_554  A
C278        H290   1.083       .  S
C279        H291   1.083       .  S
C280        C281   1.377   1_554  A
C280        H292   1.083       .  S
C281        H293   1.083       .  S
C282        C283   1.374   1_655  A
C282        H294   1.082       .  S
C283        H295   1.082       .  S
C284        C285   1.374   1_655  A
C284        H296   1.082       .  S
C285        H297   1.082       .  S
C286        C349   1.449       .  S
C287        C386   1.450       .  S
C288        C375   1.451       .  S
C289        C352   1.450       .  S
C300        C301   1.538       .  S
C300        C306   1.538       .  S
C300        C304   1.540       .  S
C300        C421   1.472       .  S
C301        H308   1.086       .  S
C301        C302   1.364       .  D
C302        C303   1.532       .  S
C302        C348   1.440       .  S
C303        C307   1.530       .  S
C303        C305   1.532       .  S
C303        H309   1.112       .  S
C304        H310   1.086       .  S
C304        C305   1.365       .  D
C305        C347   1.442       .  S
C306        H311   1.086       .  S
C306        C307   1.364       .  D
C307        C350   1.437       .  S
N312        C317   1.355       .  A
N312        C316   1.354   1_545  A
N312        H344   1.033       .  S
N313        C320   1.353       .  A
N313        C321   1.353   1_554  A
N314        C319   1.354   1_565  A
N314        C318   1.354       .  A
N314        H345   1.033       .  S
N315        C322   1.352       .  A
N315        C323   1.352   1_554  A
C316        C324   1.389       .  A
C316        C332   1.418       .  A
C317        C333   1.419       .  A
C317        C325   1.388       .  A
C318        C326   1.389       .  A
C318        C335   1.418       .  A
C319        C334   1.418       .  A
C319        C327   1.388       .  A
C320        C332   1.416       .  A
C320        C328   1.387       .  A
C321        C335   1.416       .  A
C321        C329   1.387       .  A
C322        C330   1.387       .  A
C322        C333   1.415       .  A
C323        C331   1.387       .  A
C323        C334   1.415       .  A
C324        C325   1.375   1_565  A
C324        H336   1.083       .  S
C325        H337   1.082       .  S
C326        C327   1.375   1_565  A
C326        H338   1.083       .  S
C327        H339   1.083       .  S
C328        C329   1.372   1_554  A
C328        H340   1.082       .  S
C329        H341   1.082       .  S
C330        C331   1.371   1_554  A
C330        H342   1.082       .  S
C331        H343   1.082       .  S
C332        C366   1.452       .  S
C333        C346   1.453       .  S
C334        C382   1.452       .  S
C335        C389   1.452       .  S
C346        C347   1.207       .  T
C348        C349   1.206       .  T
C350        C351   1.204       .  T
C352        C353   1.206       .  T
C354        C355   1.205       .  T
C356        C357   1.206       .  T
C358        C359   1.205       .  T
C360        C361   1.204       .  T
C362        C363   1.206       .  T
C364        C365   1.206       .  T
C366        C367   1.206       .  T
C368        C369   1.205       .  T
C370        C371   1.205       .  T
C372        C373   1.204       .  T
C374        C375   1.206       .  T
C376        C377   1.208       .  T
C378        C379   1.207       .  T
C380        C381   1.204       .  T
C382        C383   1.206       .  T
C384        C385   1.206       .  T
C386        C387   1.206       .  T
C388        C389   1.206       .  T
C390        C391   1.207       .  T
C392        C393   1.207       .  T
C394        C395   1.209       .  T
C395        C396   1.418       .  S
C396        C397   1.210       .  T
C398        C399   1.208       .  T
C399        C400   1.416       .  S
C400        C401   1.208       .  T
C402        C403   1.208       .  T
C403        C404   1.415       .  S
C404        C405   1.208       .  T
C406        C407   1.208       .  T
C407        C408   1.415       .  S
C408        C409   1.207       .  T
C410        C411   1.207       .  T
C411        C412   1.414       .  S
C412        C413   1.207       .  T
C414        C415   1.207       .  T
C415        C416   1.414       .  S
C416        C417   1.207       .  T
C418        C419   1.208       .  T
C419        C420   1.416       .  S
C420        C421   1.208       .  T
C422        C423   1.208       .  T
C423        C424   1.416       .  S
C424        C425   1.208       .  T
