geometry optimzed in LAMMPS
_audit_creation_date              2020-12-01 
_audit_creation_method            'lammps2cif' 
_symmetry_space_group_name_H-M    'P1' 
_symmetry_Int_Tables_number       1 
_symmetry_cell_setting            triclinic 
loop_ 
_symmetry_equiv_pos_as_xyz 
  x,y,z 
_cell_length_a                    28.94609299 
_cell_length_b                    29.485168543616364 
_cell_length_c                    29.46303937129073 
_cell_angle_alpha                 89.08490024731628 
_cell_angle_beta                  90.99535139118785 
_cell_angle_gamma                 81.66140501053631 
loop_ 
_atom_site_label 
_atom_site_type_symbol 
_atom_site_fract_x 
_atom_site_fract_y 
_atom_site_fract_z 
_atom_site_charge 
C1          C  0.87587060  0.89207208  0.59777477    -0.02900
C2          C  0.48965929  0.53393300  0.63499501    -0.02900
C3          C  0.82327519  0.55575297  0.94419852    -0.02900
C4          C  0.52284631  0.86101237  0.96365913    -0.02900
C5          C  0.01463034  0.03824126  0.42470113    -0.02900
C6          C  0.00115831  0.37122517  0.09767666    -0.02900
C7          C  0.34899838  0.03455321  0.11550594    -0.02900
C8          C  0.35697519  0.39476946  0.44913661    -0.02900
Zr9        Zr  0.88950666  0.91966920  0.95471904     2.17500
O10         O  0.82667923  0.94528236  0.89991120    -0.51700
O11         O  0.89364077  0.83753375  0.94619697    -0.74900
O12         O  0.91761279  0.90781413  0.87888591    -0.81700
O13         O  0.79841361  0.92958439  0.04722109    -0.83500
O14         O  0.99022041  0.92888037  0.87531385    -0.79100
O15         O  0.81389610  0.90374522  0.97585985    -0.90700
O16         O  0.93739635  0.80371558  0.00561019    -0.76700
O17         O  0.96976013  0.88985111  0.96494889    -0.86200
O18         O  0.89641549  0.89198502  0.03106044    -0.85900
O19         O  0.93038966  0.98296983  0.93846909    -0.72600
O20         O  0.86205460  0.98438462  0.00029702    -0.84800
Zr21       Zr  0.99318153  0.98938201  0.07346235     2.26400
Zr22       Zr  0.01139787  0.95319001  0.95126312     2.06300
Zr23       Zr  0.87051333  0.95627160  0.07725318     2.10000
Zr24       Zr  0.97650336  0.86241983  0.04139044     1.78800
O25         O  0.80661883  0.01512732  0.09742198    -0.93600
O26         O  0.03915332  0.81066848  0.00724608    -0.41400
O27         O  0.95161459  0.92635905  0.08910025    -0.78000
O28         O  0.02030879  0.92443532  0.02807655    -0.96700
O29         O  0.98595558  0.01745788  0.99750247    -0.90000
O30         O  0.91271472  0.01893539  0.06267669    -0.92800
C31         C  0.91059746  0.80241992  0.97054190     1.00900
C32         C  0.78738532  0.91034828  0.01013611     1.13800
C33         C  0.95444134  0.91394909  0.85765140     1.04600
O34         O  0.07544379  0.89384875  0.93244535    -0.95000
O35         O  0.08269176  0.98139509  0.97905705    -0.90700
O36         O  0.07187853  0.99787425  0.05373824    -0.83900
C37         C  0.09654780  0.99435940  0.01798162     1.11300
O38         O  0.83936938  0.07064012  0.93510254    -0.97000
Zr39       Zr  0.90570543  0.04634780  0.98633789     1.88900
O40         O  0.99600118  0.07136350  0.07524975    -0.73600
O41         O  0.03273286  0.00876151  0.89628200    -0.52900
O42         O  0.93268996  0.08517595  0.92037174    -0.97600
O43         O  0.84619539  0.10319524  0.01861409    -0.54800
O44         O  0.94626717  0.10450434  0.01992563    -0.74100
C45         C  0.97671140  0.10634669  0.05181050     0.98200
O46         O  0.04717476  0.96371102  0.13641663    -0.63000
O47         O  0.85137196  0.90044125  0.13310949    -0.57800
O48         O  0.96330143  0.00708449  0.14755255    -0.94400
O49         O  0.89268932  0.98190534  0.15317724    -0.92900
O50         O  0.95237908  0.81886529  0.10546601    -0.93200
O51         O  0.03943110  0.83587777  0.09570375    -0.92000
C52         C  0.92737332  0.99988476  0.16967250     1.17000
H53         H  0.87751770  0.86809696  0.03634972     0.33000
H54         H  0.05287991  0.91382622  0.03486872     0.43800
H55         H  0.90333255  0.04376260  0.08305807     0.37400
H56         H  0.92477395  0.99304839  0.90725455     0.33800
H57         H  0.03493761  0.77976559  0.01858509     0.25600
H58         H  0.05613083  0.99087950  0.87695595     0.31600
H59         H  0.96595480  0.08700165  0.92730672     0.37500
H60         H  0.94534638  0.84162715  0.12965502     0.31900
H61         H  0.81872984  0.91159158  0.14134994     0.30800
H62         H  0.79415262  0.00326571  0.12561582     0.32500
H63         H  0.85996584  0.11269678  0.04729702     0.31500
H64         H  0.05390460  0.86342631  0.10274367     0.35500
H65         H  0.03221267  0.94053218  0.15318358     0.28200
H66         H  0.82697384  0.92009771  0.87803529     0.32400
H67         H  0.84168287  0.10278645  0.92634271     0.35300
H68         H  0.84939225  0.87228342  0.11576491     0.27900
H69         H  0.07462914  0.94553669  0.12256792     0.40800
H70         H  0.09281553  0.88620268  0.96145500     0.30800
H71         H  0.03061378  0.81063668  0.97456063     0.38400
H72         H  0.82147601  0.08545075  0.02843108     0.30300
H73         H  0.00480307  0.01670806  0.87626767     0.30400
H74         H  0.83751635  0.97062735  0.88252839     0.30600
Zr75       Zr  0.86004678  0.51609506  0.57161639     2.17500
O76         O  0.79979252  0.58025763  0.58841485    -0.51700
O77         O  0.86469652  0.51222825  0.65497223    -0.74900
O78         O  0.78229204  0.49443315  0.57908505    -0.81700
O79         O  0.94383981  0.60172820  0.54117016    -0.83500
O80         O  0.78054878  0.42365583  0.55064062    -0.79100
O81         O  0.87082257  0.59560978  0.56552817    -0.90700
O82         O  0.91968015  0.45213826  0.67423712    -0.76700
O83         O  0.87695830  0.43630541  0.58801263    -0.86200
O84         O  0.94161448  0.50358075  0.59014935    -0.85900
O85         O  0.83894532  0.47980891  0.50301994    -0.72600
O86         O  0.90000941  0.53812782  0.50555153    -0.84800
Zr87       Zr  0.97781353  0.40657045  0.47288965     2.26400
Zr88       Zr  0.85772694  0.39908614  0.51958239     2.06300
Zr89       Zr  0.98213013  0.52406804  0.52375029     2.10000
Zr90       Zr  0.95832117  0.42352126  0.60583555     1.78800
O91         O  0.01066209  0.58241613  0.47681410    -0.93600
O92         O  0.94033515  0.35481376  0.64464607    -0.41400
O93         O  0.99958954  0.44377587  0.54028699    -0.78000
O94         O  0.93929276  0.38393926  0.53922712    -0.96700
O95         O  0.89699924  0.42049130  0.45358123    -0.90000
O96         O  0.96193258  0.48667002  0.45639600    -0.92800
C97         C  0.88775687  0.48502116  0.68460158     1.00900
C98         C  0.90308135  0.61912612  0.55485106     1.13800
C99         C  0.76115710  0.46018274  0.57001383     1.04600
O100        O  0.83796443  0.33960121  0.57085681    -0.95000
O101        O  0.88902955  0.32412629  0.48846793    -0.90700
O102        O  0.96039608  0.32999055  0.45952362    -0.83900
C103        C  0.92716190  0.30717477  0.46905015     1.11300
O104        O  0.81231855  0.55856884  0.42659723    -0.97000
Zr105      Zr  0.88087886  0.50055311  0.43785428     1.88900
O106        O  0.97353441  0.40920661  0.38995444    -0.73600
O107        O  0.80177696  0.38619588  0.46015073    -0.52900
O108        O  0.82184451  0.47217393  0.39040797    -0.97600
O109        O  0.89784087  0.57094721  0.40133364    -0.54800
O110        O  0.92247010  0.47271633  0.37004008    -0.74100
C111        C  0.95307178  0.43829700  0.36041893     0.98200
O112        O  0.04544683  0.34765451  0.48650802    -0.63000
O113        O  0.03258515  0.53981946  0.58684990    -0.57800
O114        O  0.05139203  0.42957187  0.45343214    -0.94400
O115        O  0.05996851  0.49386053  0.49231458    -0.92900
O116        O  0.01865729  0.45181571  0.65147447    -0.93200
O117        O  0.02604626  0.36520290  0.61944111    -0.92000
C118        C  0.07580632  0.45991618  0.46675975     1.17000
H119        H  0.94858348  0.52134997  0.61589688     0.33000
H120        H  0.94851240  0.35161227  0.54554396     0.43800
H121        H  0.98014498  0.49540313  0.43141608     0.37400
H122        H  0.80606199  0.48793361  0.49598901     0.33800
H123        H  0.95593709  0.35477024  0.67482887     0.25600
H124        H  0.78570766  0.36135113  0.47244135     0.31600
H125        H  0.83599393  0.44098955  0.38174569     0.37500
H126        H  0.04453608  0.45371966  0.63030985     0.31900
H127        H  0.06295778  0.54254862  0.57291379     0.30800
H128        H  0.03823495  0.59018980  0.49372557     0.32500
H129        H  0.91777874  0.56099174  0.37533103     0.31500
H130        H  0.04351103  0.36435192  0.59081140     0.35500
H131        H  0.06718590  0.36206228  0.50605663     0.28200
H132        H  0.78609652  0.57209121  0.61747531     0.32400
H133        H  0.80757305  0.56220213  0.39329269     0.35300
H134        H  0.02029169  0.57139539  0.59592987     0.27900
H135        H  0.03439374  0.32476620  0.50704666     0.40800
H136        H  0.86801278  0.32659809  0.58570503     0.30800
H137        H  0.90661838  0.36164305  0.65110998     0.38400
H138        H  0.91903698  0.58344678  0.42302773     0.30300
H139        H  0.77779041  0.41380147  0.45993665     0.30400
H140        H  0.77462967  0.57993795  0.56525757     0.30600
Zr141      Zr  0.47031846  0.49497110  0.98356280     2.17500
O142        O  0.52652160  0.48120518  0.92265833    -0.51700
O143        O  0.46957383  0.57790802  0.98528883    -0.74900
O144        O  0.43604459  0.51523826  0.91016396    -0.81700
O145        O  0.57190496  0.45897279  0.06546848    -0.83500
O146        O  0.36398034  0.49302936  0.90491089    -0.79100
O147        O  0.55136391  0.49854299  0.99947515    -0.90700
O148        O  0.41893769  0.60645984  0.03936684    -0.76700
O149        O  0.39117862  0.52419116  0.99819470    -0.86200
O150        O  0.47094758  0.51331337  0.06149706    -0.85900
O151        O  0.42662306  0.43401287  0.96431757    -0.72600
O152        O  0.49938737  0.42387444  0.02203883    -0.84800
Zr153      Zr  0.37565133  0.41196060  0.09839828     2.26400
Zr154      Zr  0.34680403  0.46337790  0.98086086     2.06300
Zr155      Zr  0.49898598  0.44265681  0.10060059     2.10000
Zr156      Zr  0.39174228  0.54167434  0.07670598     1.78800
O157        O  0.55673685  0.37737052  0.12306509    -0.93600
O158        O  0.31955690  0.59190775  0.05692601    -0.41400
O159        O  0.41964419  0.47188096  0.11709580    -0.78000
O160        O  0.34577408  0.48264643  0.05986459    -0.96700
O161        O  0.37470947  0.39288933  0.02063140    -0.90000
O162        O  0.45457519  0.38208695  0.08378087    -0.92800
C163        C  0.44789680  0.61110994  0.00782122     1.00900
C164        C  0.58146156  0.48122084  0.02953930     1.13800
C165        C  0.39899395  0.50970912  0.88813251     1.04600
O166        O  0.28287963  0.52381611  0.96070679    -0.95000
O167        O  0.27367362  0.44240241  0.01298027    -0.90700
O168        O  0.29399916  0.41240545  0.08326811    -0.83900
C169        C  0.26386505  0.42502172  0.05163114     1.11300
O170        O  0.51207864  0.35052836  0.94663406    -0.97000
Zr171      Zr  0.45373545  0.36392089  0.00556369     1.88900
O172        O  0.37001051  0.33100772  0.09437342    -0.73600
O173        O  0.32098700  0.40912486  0.92798602    -0.52900
O174        O  0.41909876  0.32854231  0.94167286    -0.97600
O175        O  0.51826711  0.30482733  0.02846824    -0.54800
O176        O  0.41855058  0.30096783  0.03951429    -0.74100
C177        C  0.38862110  0.29734979  0.07067311     0.98200
O178        O  0.33029508  0.42452970  0.16727942    -0.63000
O179        O  0.53219465  0.49205784  0.15389071    -0.57800
O180        O  0.41076130  0.39041063  0.17111506    -0.94400
O181        O  0.47667950  0.42381042  0.17779345    -0.92900
O182        O  0.42913691  0.57953562  0.13704736    -0.93200
O183        O  0.34268576  0.55941126  0.14222868    -0.92000
C184        C  0.44435662  0.40295011  0.19408388     1.17000
H185        H  0.49098077  0.53603126  0.06760941     0.33000
H186        H  0.31433627  0.49352927  0.06906158     0.43800
H187        H  0.46487718  0.35519456  0.10246914     0.37400
H188        H  0.42962656  0.42749036  0.93240850     0.33800
H189        H  0.32312916  0.62157882  0.07084027     0.25600
H190        H  0.29390537  0.42675500  0.91153327     0.31600
H191        H  0.42704239  0.29512965  0.94753625     0.37500
H192        H  0.44276795  0.55432303  0.15798723     0.31900
H193        H  0.56115843  0.47324156  0.16568135     0.30800
H194        H  0.55800153  0.35666236  0.09686544     0.32500
H195        H  0.51296881  0.27749666  0.01111088     0.31500
H196        H  0.33607484  0.52925330  0.15350442     0.35500
H197        H  0.30611952  0.45119556  0.16036858     0.28200
H198        H  0.52442857  0.51046228  0.90522775     0.32400
H199        H  0.50963192  0.31976807  0.93466457     0.35300
H200        H  0.54315389  0.51625052  0.13495717     0.27900
H201        H  0.31301823  0.39801871  0.17014561     0.40800
H202        H  0.29768012  0.55195987  0.95819027     0.30800
H203        H  0.32142026  0.59777989  0.02388653     0.38400
H204        H  0.51214382  0.29664499  0.06028898     0.30300
H205        H  0.34579398  0.40427830  0.90511384     0.30400
H206        H  0.51380247  0.45976046  0.90191660     0.30600
Zr207      Zr  0.49420748  0.90324514  0.59073113     2.17500
O208        O  0.55148660  0.83545939  0.60779718    -0.51700
O209        O  0.48689715  0.90317758  0.67311514    -0.74900
O210        O  0.57230460  0.91953593  0.60620828    -0.81700
O211        O  0.40753274  0.82349272  0.55002978    -0.83500
O212        O  0.58003792  0.99117301  0.58110592    -0.79100
O213        O  0.48013185  0.82509253  0.57994276    -0.90700
O214        O  0.44128330  0.96931255  0.69069647    -0.76700
O215        O  0.47968451  0.98164579  0.61095524    -0.86200
O216        O  0.41235703  0.91752837  0.60321572    -0.85900
O217        O  0.52103228  0.94512921  0.52781456    -0.72600
O218        O  0.45822121  0.88808361  0.51980843    -0.84800
Zr219      Zr  0.38657261  0.02596515  0.48958599     2.26400
Zr220      Zr  0.50433988  0.02452373  0.54815680     2.06300
Zr221      Zr  0.37587012  0.90416473  0.53161745     2.10000
Zr222      Zr  0.39785648  0.99651930  0.62219656     1.78800
O223        O  0.34802453  0.84917222  0.48083892    -0.93600
O224        O  0.40902150  0.06428223  0.66498650    -0.41400
O225        O  0.35958252  0.98331653  0.55157341    -0.78000
O226        O  0.42203993  0.04114466  0.56085237    -0.96700
O227        O  0.46814431  0.01041336  0.47727594    -0.90000
O228        O  0.40121532  0.94729880  0.46953883    -0.92800
C229        C  0.46984744  0.93329417  0.70160151     1.00900
C230        C  0.44729097  0.80358701  0.56590667     1.13800
C231        C  0.59621942  0.95221853  0.59981257     1.04600
O232        O  0.52388117  0.07458904  0.60827159    -0.95000
O233        O  0.47685195  0.10350454  0.52088983    -0.90700
O234        O  0.40638237  0.10325166  0.48537085    -0.83900
C235        C  0.43990235  0.12377766  0.49978105     1.11300
O236        O  0.54330601  0.86580391  0.44991071    -0.97000
Zr237      Zr  0.48269425  0.93167486  0.45785817     1.88900
O238        O  0.39687155  0.03087169  0.40775399    -0.73600
O239        O  0.56278383  0.04634096  0.49682551    -0.52900
O240        O  0.55267217  0.95214120  0.42294969    -0.97600
O241        O  0.45623235  0.87292785  0.41058753    -0.54800
O242        O  0.45606536  0.97518267  0.38929415    -0.74100
C243        C  0.42421560  0.00895477  0.37901863     0.98200
O244        O  0.31952262  0.08562428  0.49880353    -0.63000
O245        O  0.31880102  0.89114346  0.58837309    -0.57800
O246        O  0.31497034  0.00617876  0.45843681    -0.94400
O247        O  0.30456660  0.93681550  0.48837235    -0.92900
O248        O  0.33989266  0.96252173  0.66499700    -0.93200
O249        O  0.32822650  0.05222864  0.63276768    -0.92000
C250        C  0.29102027  0.97334415  0.46401009     1.17000
H251        H  0.40356884  0.89782640  0.62712070     0.33000
H252        H  0.41346223  0.07291971  0.56867227     0.43800
H253        H  0.38466525  0.94184295  0.44191344     0.37400
H254        H  0.55391134  0.93606945  0.52299509     0.33800
H255        H  0.40205819  0.05676990  0.69679552     0.25600
H256        H  0.57770530  0.06933620  0.51365782     0.31600
H257        H  0.54863710  0.98604255  0.42354988     0.37500
H258        H  0.33814679  0.97859506  0.69430669     0.31900
H259        H  0.29911177  0.92130729  0.59126027     0.30800
H260        H  0.32519241  0.83479214  0.49872530     0.32500
H261        H  0.43300016  0.88964991  0.38897276     0.31500
H262        H  0.30877951  0.05014465  0.60511959     0.35500
H263        H  0.29502810  0.06997530  0.51263581     0.28200
H264        H  0.56587184  0.84068278  0.63765460     0.32400
H265        H  0.54845129  0.86290791  0.41687489     0.35300
H266        H  0.29817500  0.87185281  0.57310347     0.27900
H267        H  0.32876747  0.10497302  0.52357437     0.40800
H268        H  0.52973582  0.05439568  0.63556913     0.30800
H269        H  0.44317395  0.06461188  0.66512627     0.38400
H270        H  0.43762375  0.85608870  0.43108499     0.30300
H271        H  0.58717949  0.01913591  0.49578254     0.30400
H272        H  0.57671479  0.83595955  0.58557623     0.30600
C273        C  0.12582303  0.45215086  0.45244567    -0.05600
C274        C  0.13902775  0.42012342  0.41813517    -0.05600
C275        C  0.18596064  0.40468042  0.40948401    -0.23700
C276        C  0.22133116  0.42107702  0.43454254     0.18500
C277        C  0.20901450  0.45553426  0.46672536     0.15700
C278        C  0.16139195  0.47096356  0.47561368    -0.18800
C279        C  0.24467586  0.47337356  0.48994103    -0.20600
C280        C  0.29162520  0.45571844  0.48331940    -0.13200
C281        C  0.30484174  0.41771568  0.45492965     0.03500
C282        C  0.26866181  0.40277570  0.42863223    -0.25300
H283        H  0.11287855  0.40536235  0.39887021     0.08600
H284        H  0.19452325  0.37886420  0.38400307     0.12200
H285        H  0.15223791  0.49578484  0.50189404     0.12100
H286        H  0.23630310  0.50117670  0.51338244     0.11900
H287        H  0.31695634  0.47289351  0.50070343     0.12400
H288        H  0.27745673  0.37563166  0.40451357     0.14400
C289        C  0.44202322  0.39495587  0.24292756    -0.05600
C290        C  0.44820274  0.34982959  0.26004800    -0.05600
C291        C  0.43161576  0.34007680  0.30282462    -0.23700
C292        C  0.40763261  0.37529618  0.32856812     0.18500
C293        C  0.40187529  0.42088892  0.31163516     0.15700
C294        C  0.41964739  0.43052482  0.26916850    -0.18800
C295        C  0.37678223  0.45579984  0.33655747    -0.20600
C296        C  0.35974964  0.44611093  0.37903149    -0.13200
C297        C  0.36779742  0.40126599  0.39820920     0.03500
C298        C  0.38927995  0.36555654  0.37081147    -0.25300
H299        H  0.46367432  0.32188508  0.23924601     0.08600
H300        H  0.43620849  0.30484638  0.31510881     0.12200
H301        H  0.41300581  0.46510885  0.25501132     0.12100
H302        H  0.37120787  0.49084138  0.32369087     0.11900
H303        H  0.34274842  0.47443669  0.39843647     0.12400
H304        H  0.39313380  0.33019648  0.38202837     0.14400
C305        C  0.36528423  0.34306799  0.46459275    -0.05600
C306        C  0.32887840  0.31962483  0.47961161    -0.05600
C307        C  0.33671056  0.27261844  0.48970451    -0.23700
C308        C  0.38145301  0.24757232  0.48694114     0.18500
C309        C  0.41934026  0.27052565  0.47602188     0.15700
C310        C  0.41117575  0.31792808  0.46545733    -0.18800
C311        C  0.46452996  0.24537039  0.47509236    -0.20600
C312        C  0.47172771  0.19781197  0.48380538    -0.13200
C313        C  0.43378754  0.17444753  0.49282056     0.03500
C314        C  0.38877126  0.19989102  0.49486358    -0.25300
H315        H  0.29378967  0.33682214  0.48371191     0.08600
H316        H  0.30746826  0.25574813  0.49957626     0.12200
H317        H  0.44038667  0.33509836  0.45612057     0.12100
H318        H  0.49422818  0.26237541  0.46713258     0.11900
H319        H  0.50673065  0.17911103  0.48230146     0.12400
H320        H  0.35927874  0.18250345  0.50273357     0.14400
C321        C  0.36092091  0.08121148  0.09745934    -0.05600
C322        C  0.40289846  0.08501020  0.07455031    -0.05600
C323        C  0.41543237  0.12767996  0.06314033    -0.23700
C324        C  0.38749947  0.16810245  0.07558803     0.18500
C325        C  0.34603550  0.16541019  0.09939527     0.15700
C326        C  0.33286527  0.12233631  0.10972743    -0.18800
C327        C  0.31897561  0.20588710  0.11340289    -0.20600
C328        C  0.33296302  0.24849478  0.10406662    -0.13200
C329        C  0.37407772  0.25171585  0.08003698     0.03500
C330        C  0.40103017  0.21110414  0.06562279    -0.25300
H331        H  0.42766190  0.05530030  0.06667939     0.08600
H332        H  0.44788512  0.12898941  0.04570087     0.12200
H333        H  0.30137315  0.12060213  0.12865885     0.12100
H334        H  0.28716710  0.20460578  0.13193805     0.11900
H335        H  0.31128922  0.27907059  0.11550413     0.12400
H336        H  0.43301089  0.21285609  0.04748867     0.14400
C337        C  0.35438133  0.03736830  0.16803659    -0.05600
C338        C  0.31555458  0.04241178  0.19702517    -0.05600
C339        C  0.32148774  0.04206710  0.24417836    -0.23700
C340        C  0.36628981  0.03692759  0.26387041     0.18500
C341        C  0.40541496  0.03550112  0.23569007     0.15700
C342        C  0.39896346  0.03822948  0.18825320    -0.18800
C343        C  0.45044075  0.02896680  0.25538000    -0.20600
C344        C  0.45658097  0.02141249  0.30227116    -0.13200
C345        C  0.41779521  0.02217331  0.33044748     0.03500
C346        C  0.37264525  0.03152106  0.31114672    -0.25300
H347        H  0.28016611  0.04671577  0.18365025     0.08600
H348        H  0.29095867  0.04452829  0.26527445     0.12200
H349        H  0.42912282  0.03751826  0.16682862     0.12100
H350        H  0.48092531  0.02767137  0.23434332     0.11900
H351        H  0.49168412  0.01435278  0.31654025     0.12400
H352        H  0.34256550  0.03164673  0.33261070     0.14400
C353        C  0.29955065  0.02465896  0.10117968    -0.05600
C354        C  0.28458463  0.98478524  0.11955024    -0.05600
C355        C  0.24267393  0.97094685  0.10591559    -0.23700
C356        C  0.21494523  0.99535327  0.07193937     0.18500
C357        C  0.22939961  0.03446770  0.05144348     0.15700
C358        C  0.27142501  0.04920797  0.06637023    -0.18800
C359        C  0.20148282  0.05776046  0.01628505    -0.20600
C360        C  0.15930961  0.04304925  0.00271096    -0.13200
C361        C  0.14447587  0.00498845  0.02420678     0.03500
C362        C  0.17274096  0.98115961  0.05845094    -0.25300
H363        H  0.30591794  0.96396840  0.14485163     0.08600
H364        H  0.23230743  0.94056897  0.12156881     0.12200
H365        H  0.28273416  0.07848774  0.04961881     0.12100
H366        H  0.21179069  0.08779192  0.99992221     0.11900
H367        H  0.13732515  0.06253973  0.97698399     0.12400
H368        H  0.16107480  0.95207870  0.07549759     0.14400
C369        C  0.96577055  0.43235065  0.31206629    -0.05600
C370        C  0.97282447  0.47044625  0.28512021    -0.05600
C371        C  0.98394942  0.46541095  0.23916800    -0.23700
C372        C  0.98672203  0.42236408  0.21885041     0.18500
C373        C  0.97905714  0.38409633  0.24556108     0.15700
C374        C  0.96978987  0.38901711  0.29216325    -0.18800
C375        C  0.97878851  0.34187152  0.22486895    -0.20600
C376        C  0.98537521  0.33743933  0.17820309    -0.13200
C377        C  0.99563336  0.37443052  0.15058011     0.03500
C378        C  0.99567223  0.41719820  0.17212230    -0.25300
H379        H  0.97007725  0.50415599  0.29980875     0.08600
H380        H  0.98942725  0.49535663  0.21932549     0.12200
H381        H  0.96382495  0.35953609  0.31252740     0.12100
H382        H  0.97158667  0.31241133  0.24454804     0.11900
H383        H  0.98065433  0.30477043  0.16460735     0.12400
H384        H  0.00153249  0.44684780  0.15197571     0.14400
C385        C  0.05097354  0.37806844  0.08200022    -0.05600
C386        C  0.06312484  0.37167598  0.03583804    -0.05600
C387        C  0.10618931  0.38070400  0.01959185    -0.23700
C388        C  0.13892642  0.39605767  0.04897671     0.18500
C389        C  0.12826468  0.40069954  0.09549438     0.15700
C390        C  0.08547315  0.39062286  0.11176331    -0.18800
C391        C  0.16047617  0.41578829  0.12540066    -0.20600
C392        C  0.20302961  0.42558326  0.10973990    -0.13200
C393        C  0.21510345  0.42018914  0.06379780     0.03500
C394        C  0.18237941  0.40605275  0.03313343    -0.25300
H395        H  0.03827377  0.36109264  0.01176532     0.08600
H396        H  0.11356850  0.37622388  0.98388879     0.12200
H397        H  0.07961728  0.39334096  0.14773440     0.12100
H398        H  0.15288299  0.41987406  0.16112155     0.11900
H399        H  0.22715545  0.43680418  0.13416156     0.12400
H400        H  0.19126943  0.40130105  0.99777903     0.14400
C401        C  0.99012728  0.15196493  0.06201275    -0.05600
C402        C  0.02768033  0.15628821  0.09187976    -0.05600
C403        C  0.03944086  0.19955238  0.10188107    -0.23700
C404        C  0.01338857  0.23937248  0.08281953     0.18500
C405        C  0.97598590  0.23527424  0.05256350     0.15700
C406        C  0.96497644  0.19186570  0.04193025    -0.18800
C407        C  0.94962162  0.27470772  0.03378364    -0.20600
C408        C  0.95810590  0.31794968  0.04697002    -0.13200
C409        C  0.99316237  0.32330032  0.07987346     0.03500
C410        C  0.02301703  0.28319271  0.09460460    -0.25300
H411        H  0.04797467  0.12622312  0.10762751     0.08600
H412        H  0.06827490  0.20189758  0.12525219     0.12200
H413        H  0.93596496  0.18936136  0.01878265     0.12100
H414        H  0.92167993  0.27216850  0.00939986     0.11900
H415        H  0.93673160  0.34684167  0.03063399     0.12400
H416        H  0.05184289  0.28620713  0.11781753     0.14400
C417        C  0.00719138  0.09123158  0.43167281    -0.05600
C418        C  0.04369560  0.11586712  0.44437520    -0.05600
C419        C  0.03510355  0.16289321  0.45249885    -0.23700
C420        C  0.98960749  0.18668683  0.45005201     0.18500
C421        C  0.95210178  0.16278729  0.43982624     0.15700
C422        C  0.96104924  0.11561892  0.43079386    -0.18800
C423        C  0.90624160  0.18641125  0.43946438    -0.20600
C424        C  0.89777546  0.23330250  0.44915572    -0.13200
C425        C  0.93507214  0.25757326  0.45847092     0.03500
C426        C  0.98099057  0.23382143  0.45874305    -0.25300
H427        H  0.07908594  0.09935373  0.44975962     0.08600
H428        H  0.06415656  0.18052248  0.46173079     0.12200
H429        H  0.93192018  0.09742100  0.42335573     0.12100
H430        H  0.87690345  0.16856077  0.43197794     0.11900
H431        H  0.86214901  0.25070163  0.44887277     0.12400
H432        H  0.01011476  0.25183987  0.46673478     0.14400
C433        C  0.24373227  0.98035157  0.44240747    -0.05600
C434        C  0.23284899  0.01314186  0.40696926    -0.05600
C435        C  0.18648754  0.02753212  0.39296550    -0.23700
C436        C  0.14998423  0.01007050  0.41471378     0.18500
C437        C  0.16095880  0.97512386  0.44823178     0.15700
C438        C  0.20760670  0.95976311  0.46117515    -0.18800
C439        C  0.12501033  0.95736527  0.46986249    -0.20600
C440        C  0.07881864  0.97631381  0.46128065    -0.13200
C441        C  0.06657817  0.01481387  0.43146762     0.03500
C442        C  0.10288819  0.02840352  0.40527825    -0.25300
H443        H  0.26012502  0.02917858  0.39131989     0.08600
H444        H  0.17912843  0.05397155  0.36680811     0.12200
H445        H  0.21537429  0.93443512  0.48836579     0.12100
H446        H  0.13259515  0.92934053  0.49436927     0.11900
H447        H  0.05298897  0.95974879  0.47844222     0.12400
H448        H  0.09462522  0.05533718  0.37970783     0.14400
C449        C  0.99898584  0.02490246  0.37638643    -0.05600
C450        C  0.00557757  0.97806761  0.36456101    -0.05600
C451        C  0.98871658  0.96350668  0.32341662    -0.23700
C452        C  0.96512904  0.99525822  0.29219215     0.18500
C453        C  0.95942767  0.04239045  0.30220085     0.15700
C454        C  0.97739755  0.05697404  0.34335164    -0.18800
C455        C  0.93662099  0.07430641  0.27034065    -0.20600
C456        C  0.92166274  0.05975882  0.22825922    -0.13200
C457        C  0.92834633  0.01305572  0.21761672     0.03500
C458        C  0.94924984  0.98084431  0.25014024    -0.25300
H459        H  0.02250251  0.95217539  0.38821660     0.08600
H460        H  0.99401289  0.92723763  0.31613405     0.12200
H461        H  0.97416424  0.09336645  0.34886346     0.12100
H462        H  0.93192578  0.11065255  0.27726205     0.11900
H463        H  0.90720485  0.08520001  0.20295737     0.12400
H464        H  0.95617780  0.94494365  0.24138520     0.14400
C465        C  0.48042218  0.89119970  0.98500165    -0.05600
C466        C  0.44424721  0.91768959  0.95915515    -0.05600
C467        C  0.41128979  0.94962191  0.97979746    -0.23700
C468        C  0.41163739  0.95386432  0.02696417     0.18500
C469        C  0.44298101  0.92322034  0.05382448     0.15700
C470        C  0.47670362  0.89181315  0.03284785    -0.18800
C471        C  0.44063016  0.92520536  0.10117546    -0.20600
C472        C  0.40948609  0.95915839  0.12166170    -0.13200
C473        C  0.38161889  0.99358708  0.09523596     0.03500
C474        C  0.38139706  0.98852095  0.04758352    -0.25300
H475        H  0.44093351  0.91463061  0.92287777     0.08600
H476        H  0.38571936  0.97128691  0.95875208     0.12200
H477        H  0.50205605  0.86963974  0.05369318     0.12100
H478        H  0.46304084  0.90060233  0.12243366     0.11900
H479        H  0.40767902  0.95776325  0.15817739     0.12400
H480        H  0.35857086  0.01287022  0.02640548     0.14400
C481        C  0.51718658  0.81124554  0.97868350    -0.05600
C482        C  0.54983502  0.78258012  0.00651153    -0.05600
C483        C  0.54335456  0.73740692  0.01713740    -0.23700
C484        C  0.50346729  0.72000798  0.00151929     0.18500
C485        C  0.46912140  0.74895199  0.97596058     0.15700
C486        C  0.47600786  0.79394571  0.96513259    -0.18800
C487        C  0.42836883  0.73241194  0.96140283    -0.20600
C488        C  0.42177316  0.68743907  0.97188930    -0.13200
C489        C  0.45606268  0.65807808  0.99642166     0.03500
C490        C  0.49692848  0.67443465  0.01133580    -0.25300
H491        H  0.58038987  0.79457120  0.02067285     0.08600
H492        H  0.56953391  0.71610779  0.03783209     0.12200
H493        H  0.44959187  0.81560843  0.94497793     0.12100
H494        H  0.40154493  0.75429432  0.94197805     0.11900
H495        H  0.38994102  0.67537989  0.96061780     0.12400
H496        H  0.52313454  0.65192901  0.03093304     0.14400
C497        C  0.56974442  0.87630596  0.97998888    -0.05600
C498        C  0.57171713  0.91710023  0.00447950    -0.05600
C499        C  0.61428042  0.93037284  0.01802174    -0.23700
C500        C  0.65656191  0.90434666  0.00644889     0.18500
C501        C  0.65563501  0.86466544  0.98031774     0.15700
C502        C  0.61269776  0.85142760  0.96681994    -0.18800
C503        C  0.69776457  0.83908639  0.96752588    -0.20600
C504        C  0.74022515  0.85325124  0.97948896    -0.13200
C505        C  0.74181768  0.89320749  0.00477060     0.03500
C506        C  0.69967750  0.91824461  0.01899476    -0.25300
H507        H  0.54062786  0.94016339  0.01255565     0.08600
H508        H  0.61404362  0.96164372  0.03690415     0.12200
H509        H  0.61255002  0.82131819  0.94620131     0.12100
H510        H  0.69791064  0.80852701  0.94754215     0.11900
H511        H  0.77216935  0.83327289  0.96805339     0.12400
H512        H  0.70034647  0.94947762  0.03775257     0.14400
C513        C  0.52255060  0.86569238  0.91084348    -0.05600
C514        C  0.52510738  0.82737756  0.88212439    -0.05600
C515        C  0.51824464  0.83292313  0.83521496    -0.23700
C516        C  0.50890067  0.87679414  0.81546897     0.18500
C517        C  0.51046771  0.91543995  0.84285100     0.15700
C518        C  0.52018876  0.90943227  0.88970081    -0.18800
C519        C  0.49982714  0.95948622  0.82332744    -0.20600
C520        C  0.48626535  0.96507936  0.77753321    -0.13200
C521        C  0.48450929  0.92677978  0.74999937     0.03500
C522        C  0.49698615  0.88262457  0.76905343    -0.25300
H523        H  0.53184592  0.79267191  0.89548187     0.08600
H524        H  0.51870419  0.80278122  0.81456651     0.12200
H525        H  0.52117842  0.93927778  0.91052420     0.12100
H526        H  0.50062552  0.98960751  0.84375861     0.11900
H527        H  0.47740081  0.99949122  0.76350406     0.12400
H528        H  0.49570670  0.85285347  0.74819275     0.14400
C529        C  0.96316728  0.40922181  0.07710013    -0.05600
C530        C  0.91619701  0.41013394  0.09009821    -0.05600
C531        C  0.88010511  0.44049389  0.06951902    -0.23700
C532        C  0.88962100  0.47018489  0.03447261     0.18500
C533        C  0.93624293  0.47128372  0.02220231     0.15700
C534        C  0.97264772  0.44252845  0.04475438    -0.18800
C535        C  0.94579029  0.50066471  0.98696174    -0.20600
C536        C  0.90936529  0.52696238  0.96266932    -0.13200
C537        C  0.86203918  0.52501139  0.97276944     0.03500
C538        C  0.85316898  0.49829214  0.01120306    -0.25300
H539        H  0.90725058  0.38591454  0.11532005     0.08600
H540        H  0.84451396  0.43937563  0.07978129     0.12200
H541        H  0.00789267  0.44591971  0.03557966     0.12100
H542        H  0.98144880  0.50250817  0.97736087     0.11900
H543        H  0.91811499  0.54865616  0.93505460     0.12400
H544        H  0.81839664  0.49914151  0.02400762     0.14400
C545        C  0.87774880  0.49125746  0.73406358    -0.05600
C546        C  0.90375995  0.46164864  0.76623943    -0.05600
C547        C  0.89628520  0.46650689  0.81266498    -0.23700
C548        C  0.86268886  0.50128389  0.82855065     0.18500
C549        C  0.83550907  0.53100778  0.79716312     0.15700
C550        C  0.84306643  0.52586782  0.74999368    -0.18800
C551        C  0.80145384  0.56522600  0.81376492    -0.20600
C552        C  0.79638888  0.57138597  0.86072979    -0.13200
C553        C  0.82583243  0.54420328  0.89263086     0.03500
C554        C  0.85672845  0.50704193  0.87548702    -0.25300
H555        H  0.93046422  0.43451351  0.75563574     0.08600
H556        H  0.91741857  0.44330410  0.83626819     0.12200
H557        H  0.82233382  0.54888069  0.72594416     0.12100
H558        H  0.77937293  0.58791240  0.79045863     0.11900
H559        H  0.77078052  0.59903619  0.87229092     0.12400
H560        H  0.87703834  0.48245340  0.89821219     0.14400
C561        C  0.63016307  0.48705259  0.01988872    -0.05600
C562        C  0.66294248  0.44895511  0.00943850    -0.05600
C563        C  0.70553535  0.45495043  0.98982389    -0.23700
C564        C  0.71638899  0.49920719  0.98119016     0.18500
C565        C  0.68424739  0.53761382  0.99319668     0.15700
C566        C  0.64111184  0.53134267  0.01169272    -0.18800
C567        C  0.69537280  0.58170508  0.98565363    -0.20600
C568        C  0.73900068  0.58779094  0.96894774    -0.13200
C569        C  0.77293511  0.54987362  0.95892195     0.03500
C570        C  0.75906171  0.50575739  0.96152387    -0.25300
H571        H  0.65453181  0.41459866  0.01420326     0.08600
H572        H  0.72981203  0.42499510  0.98108830     0.12200
H573        H  0.61548951  0.56089435  0.01879253     0.12100
H574        H  0.67059477  0.61163215  0.99346446     0.11900
H575        H  0.74569803  0.62261154  0.96387716     0.12400
H576        H  0.78321099  0.47617951  0.95149540     0.14400
C577        C  0.83418359  0.60494503  0.95383343    -0.05600
C578        C  0.83217669  0.62014758  0.99917923    -0.05600
C579        C  0.84740363  0.66111172  0.01143470    -0.23700
C580        C  0.86503970  0.68853570  0.97874734     0.18500
C581        C  0.86665857  0.67482107  0.93302123     0.15700
C582        C  0.85208251  0.63304651  0.92097688    -0.18800
C583        C  0.88326671  0.70304164  0.90007898    -0.20600
C584        C  0.89760535  0.74457797  0.91232250    -0.13200
C585        C  0.89711175  0.75784262  0.95788544     0.03500
C586        C  0.88109142  0.72948049  0.99104480    -0.25300
H587        H  0.81975753  0.59928353  0.02562107     0.08600
H588        H  0.84576758  0.67110632  0.04666955     0.12200
H589        H  0.85672347  0.62221224  0.88631929     0.12100
H590        H  0.88462862  0.69327494  0.86477527     0.11900
H591        H  0.90953430  0.76622697  0.88626164     0.12400
H592        H  0.87987456  0.73999231  0.02616220     0.14400
C593        C  0.46188659  0.50263951  0.60647591    -0.05600
C594        C  0.42836892  0.47760656  0.62563372    -0.05600
C595        C  0.40451545  0.44935451  0.59935566    -0.23700
C596        C  0.41233357  0.44585458  0.55292413     0.18500
C597        C  0.44431759  0.47142953  0.53269957     0.15700
C598        C  0.46752279  0.50063270  0.55905701    -0.18800
C599        C  0.45291165  0.46704322  0.48643690    -0.20600
C600        C  0.42757613  0.44026204  0.45989720    -0.13200
C601        C  0.39119493  0.41869950  0.47853725     0.03500
C602        C  0.38712228  0.41870911  0.52613159    -0.25300
H603        H  0.41902623  0.48009082  0.66088332     0.08600
H604        H  0.37928121  0.43079278  0.61535088     0.12200
H605        H  0.49134141  0.52084216  0.54298798     0.12100
H606        H  0.47900558  0.48463014  0.47061186     0.11900
H607        H  0.43682349  0.43741440  0.42463874     0.12400
H608        H  0.36161787  0.40020683  0.54178945     0.14400
C609        C  0.71077418  0.46415202  0.58146585    -0.05600
C610        C  0.68186441  0.43549503  0.56111141    -0.05600
C611        C  0.63383393  0.44146841  0.56911072    -0.23700
C612        C  0.61358962  0.47626212  0.59765036     0.18500
C613        C  0.64231438  0.50443795  0.61929533     0.15700
C614        C  0.69059934  0.49827427  0.61114519    -0.18800
C615        C  0.62217871  0.53849257  0.64850962    -0.20600
C616        C  0.57380125  0.54614751  0.65434025    -0.13200
C617        C  0.54374425  0.52088136  0.63026116     0.03500
C618        C  0.56503352  0.48370628  0.60421124    -0.25300
H619        H  0.69617689  0.40911201  0.53801929     0.08600
H620        H  0.61235830  0.41941395  0.55220568     0.12200
H621        H  0.71232869  0.52046566  0.62750815     0.12100
H622        H  0.64375440  0.55985838  0.66626466     0.11900
H623        H  0.55932147  0.57342416  0.67639457     0.12400
H624        H  0.54458025  0.46008585  0.58874620     0.14400
C625        C  0.40120247  0.51956858  0.83928516    -0.05600
C626        C  0.38698023  0.56397010  0.82164501    -0.05600
C627        C  0.40317625  0.57714735  0.77948211    -0.23700
C628        C  0.43449262  0.54629803  0.75483170     0.18500
C629        C  0.44831806  0.50149189  0.77235994     0.15700
C630        C  0.43131956  0.48838629  0.81407907    -0.18800
C631        C  0.48017249  0.47086381  0.74869885    -0.20600
C632        C  0.49573171  0.48330043  0.70642331    -0.13200
C633        C  0.47992608  0.52683604  0.68630747     0.03500
C634        C  0.45195079  0.55932920  0.71297975    -0.25300
H635        H  0.36550709  0.58910273  0.84156985     0.08600
H636        H  0.39222527  0.61178333  0.76674908     0.12200
H637        H  0.44399244  0.45471056  0.82855539     0.12100
H638        H  0.49193003  0.43665010  0.76219359     0.11900
H639        H  0.51787966  0.45753723  0.68782787     0.12400
H640        H  0.44219316  0.59430678  0.70137148     0.14400
C641        C  0.47247877  0.58395026  0.61698958    -0.05600
C642        C  0.42454962  0.60241065  0.61828569    -0.05600
C643        C  0.40869305  0.64835005  0.60615994    -0.23700
C644        C  0.43992991  0.67694252  0.59041970     0.18500
C645        C  0.48694965  0.65783037  0.58415861     0.15700
C646        C  0.50249102  0.61172286  0.59619621    -0.18800
C647        C  0.51836222  0.68552228  0.56724480    -0.20600
C648        C  0.50422103  0.73231515  0.55956037    -0.13200
C649        C  0.45814353  0.75262969  0.56780025     0.02700
C650        C  0.42549633  0.72432854  0.58173758    -0.25300
H651        H  0.39944894  0.58158543  0.63081440     0.08600
H652        H  0.37212154  0.66171033  0.61001273     0.12200
H653        H  0.53833929  0.59830381  0.58933242     0.12100
H654        H  0.55444608  0.67136120  0.56159957     0.11900
H655        H  0.52989625  0.75308456  0.54817012     0.12400
H656        H  0.38985539  0.73945168  0.58810555     0.14400
C657        C  0.90134609  0.91518187  0.56006172    -0.05600
C658        C  0.88916299  0.90809200  0.51426584    -0.05600
C659        C  0.90534071  0.93324117  0.47908687    -0.23700
C660        C  0.93479084  0.96560663  0.48860561     0.18500
C661        C  0.94947028  0.97135682  0.53377351     0.15700
C662        C  0.93429025  0.94496458  0.56884018    -0.18800
C663        C  0.97866043  0.00394921  0.54332119    -0.20600
C664        C  0.99580347  0.02824872  0.50805350    -0.13200
C665        C  0.98511150  0.01970599  0.46219824     0.03500
C666        C  0.95105659  0.99107611  0.45340674    -0.25300
H667        H  0.86483211  0.88465491  0.50602417     0.08600
H668        H  0.89432030  0.92775618  0.44451287     0.12200
H669        H  0.94786020  0.94878909  0.60268605     0.12100
H670        H  0.98939917  0.00967237  0.57792868     0.11900
H671        H  0.02066783  0.05112777  0.51634270     0.12400
H672        H  0.93833477  0.98658575  0.41935581     0.14400
C673        C  0.88726922  0.83995405  0.58815060    -0.05600
C674        C  0.93468642  0.81953716  0.58818581    -0.05600
C675        C  0.94742921  0.77278138  0.58093796    -0.23700
C676        C  0.91326463  0.74493575  0.57220093     0.18500
C677        C  0.86580437  0.76484400  0.56968029     0.15700
C678        C  0.85320175  0.81206648  0.57661556    -0.18800
C679        C  0.83152402  0.73704127  0.56072314    -0.20600
C680        C  0.84402904  0.68992725  0.55545083    -0.13200
C681        C  0.89116114  0.66957422  0.55829497     0.03500
C682        C  0.92575090  0.69752469  0.56607967    -0.25300
H683        H  0.96207986  0.84002243  0.59519093     0.08600
H684        H  0.98406255  0.75837438  0.58253168     0.12200
H685        H  0.81686894  0.82642866  0.57253859     0.12100
H686        H  0.79494075  0.75159326  0.55850034     0.11900
H687        H  0.81660092  0.66931491  0.54910031     0.12400
H688        H  0.96212754  0.68226907  0.56855526     0.14400
C689        C  0.89237526  0.90324555  0.64633021    -0.05600
C690        C  0.88505310  0.94917246  0.66093209    -0.05600
C691        C  0.89992739  0.96100617  0.70389966    -0.23700
C692        C  0.92167955  0.92716311  0.73414945     0.18500
C693        C  0.92829878  0.88089771  0.72098891     0.15700
C694        C  0.91261604  0.86918697  0.67806882    -0.18800
C695        C  0.94925237  0.84672970  0.75158538    -0.20600
C696        C  0.96149335  0.85813968  0.79555500    -0.13200
C697        C  0.95369939  0.90384850  0.80922601     0.03500
C698        C  0.93464167  0.93841891  0.77822503    -0.25300
H699        H  0.86838434  0.97628783  0.63840909     0.08600
H700        H  0.89400038  0.99664381  0.71358952     0.12200
H701        H  0.91560151  0.83318691  0.67060313     0.12100
H702        H  0.95463629  0.81103357  0.74205035     0.11900
H703        H  0.97495718  0.83107181  0.81962379     0.12400
H704        H  0.92725908  0.97357035  0.78935956     0.14400
C705        C  0.64647510  0.94210195  0.61182046    -0.05600
C706        C  0.66306875  0.90600043  0.64248604    -0.05600
C707        C  0.71095479  0.89077441  0.64779064    -0.23700
C708        C  0.74303486  0.91080562  0.62187425     0.18500
C709        C  0.72657676  0.94807232  0.59230227     0.15700
C710        C  0.67867039  0.96396059  0.58798312    -0.18800
C711        C  0.75813488  0.96831134  0.56651438    -0.20600
C712        C  0.80534165  0.95079454  0.56832167    -0.13200
C713        C  0.82281221  0.91140426  0.59523671     0.03500
C714        C  0.79100943  0.89353853  0.62404080    -0.25300
H715        H  0.63887933  0.88858526  0.66140279     0.08600
H716        H  0.72271653  0.86231684  0.67089058     0.12200
H717        H  0.66636360  0.99148306  0.56393645     0.12100
H718        H  0.74629942  0.99776578  0.54463725     0.11900
H719        H  0.82778102  0.96960172  0.54890027     0.12400
H720        H  0.80358162  0.86526074  0.64712078     0.14400
loop_ 
_geom_bond_atom_site_label_1 
_geom_bond_atom_site_label_2 
_geom_bond_distance 
_geom_bond_site_symmetry_2 
_ccdc_geom_bond_type 
C1          C657   1.547       .  S
C1          C673   1.556       .  S
C1          C689   1.556       .  S
C1          C713   1.559       .  S
C2          C593   1.556       .  S
C2          C617   1.566       .  S
C2          C633   1.559       .  S
C2          C641   1.567       .  S
C3          C537   1.561       .  S
C3          C553   1.563       .  S
C3          C569   1.560       .  S
C3          C577   1.558       .  S
C4          C465   1.557       .  S
C4          C481   1.558       .  S
C4          C497   1.562       .  S
C4          C513   1.560       .  S
C5          C417   1.563       .  S
C5          C441   1.569       .  S
C5          C449   1.560   1_455  S
C5          C665   1.549   1_455  S
C6          C377   1.573   1_455  S
C6          C385   1.561       .  S
C6          C409   1.562   1_455  S
C6          C529   1.559   1_455  S
C7          C321   1.554       .  S
C7          C337   1.558       .  S
C7          C353   1.554       .  S
C7          C473   1.555   1_545  S
C8          C281   1.575       .  S
C8          C297   1.553       .  S
C8          C305   1.567       .  S
C8          C601   1.556       .  S
Zr9          O10   2.438       .  S
Zr9          O11   2.425       .  S
Zr9          O12   2.405       .  S
Zr9          O15   2.395       .  S
Zr9          O17   2.374       .  S
Zr9          O18   2.376   1_556  S
Zr9          O19   2.397       .  S
Zr9          O20   2.399   1_556  S
O10          H66   0.990       .  S
O10          H74   0.990       .  S
O11          C31   1.282       .  A
O12          C33   1.279       .  A
O13         Zr23   2.488       .  S
O13          C32   1.295       .  A
O14         Zr22   2.455   1_655  S
O14          C33   1.288       .  A
O15          C32   1.279   1_556  A
O16         Zr24   2.444       .  S
O16          C31   1.286   1_554  A
O17         Zr22   2.398   1_655  S
O17         Zr24   2.376   1_556  S
O18         Zr23   2.390       .  S
O18         Zr24   2.368       .  S
O18          H53   0.965       .  S
O19         Zr22   2.403   1_655  S
O19         Zr39   2.392   1_565  S
O19          H56   0.966       .  S
O20         Zr23   2.398       .  S
O20         Zr39   2.401   1_564  S
Zr21         O46   2.443   1_655  S
Zr21         O40   2.432   1_565  S
Zr21         O48   2.399   1_565  S
Zr21         O36   2.408   1_655  S
Zr21         O27   2.399       .  S
Zr21         O28   2.399   1_655  S
Zr21         O29   2.369   1_564  S
Zr21         O30   2.380   1_565  S
Zr22         O41   2.436   1_565  S
Zr22         O34   2.435       .  S
Zr22         O35   2.466       .  S
Zr22         O28   2.400   1_556  S
Zr22         O29   2.388   1_465  S
Zr23         O25   2.434   1_565  S
Zr23         O47   2.436       .  S
Zr23         O49   2.476       .  S
Zr23         O27   2.402       .  S
Zr23         O30   2.395   1_565  S
Zr24         O50   2.435       .  S
Zr24         O51   2.436   1_655  S
Zr24         O26   2.437   1_655  S
Zr24         O27   2.403       .  S
Zr24         O28   2.403   1_655  S
O25          H62   0.990       .  S
O26          H57   0.990       .  S
O26          H71   0.990   1_554  S
O28          H54   0.966       .  S
O29         Zr39   2.371       .  S
O30         Zr39   2.373   1_554  S
O30          H55   0.966       .  S
C31         C585   1.476       .  S
C32         C505   1.486       .  S
C33         C697   1.463       .  S
O34          H70   0.990       .  S
O35          C37   1.290   1_556  A
O36          C37   1.280       .  A
C37         C361   1.475   1_565  S
O38         Zr39   2.438       .  S
O38          H67   0.990       .  S
Zr39         O42   2.437       .  S
Zr39         O43   2.440   1_556  S
Zr39         O44   2.428   1_556  S
O40          C45   1.284       .  A
O41          H58   0.990   1_545  S
O41          H73   0.990       .  S
O42          H59   0.990       .  S
O43          H63   0.990       .  S
O43          H72   0.990       .  S
O44          C45   1.284       .  A
C45         C401   1.487       .  S
O46          H65   0.991       .  S
O46          H69   0.990       .  S
O47          H61   0.990       .  S
O47          H68   0.990       .  S
O48          C52   1.278   1_545  A
O49          C52   1.293       .  A
O50          H60   0.990       .  S
O51          H64   0.990       .  S
C52         C457   1.472   1_565  S
Zr75         O76   2.443       .  S
Zr75         O77   2.457       .  S
Zr75         O78   2.440       .  S
Zr75         O81   2.414       .  S
Zr75         O83   2.373       .  S
Zr75         O84   2.389       .  S
Zr75         O85   2.412       .  S
Zr75         O86   2.409       .  S
O76         H132   0.991       .  S
O76         H140   0.990       .  S
O77          C97   1.286       .  A
O78          C99   1.284       .  A
O79         Zr89   2.461       .  S
O79          C98   1.290       .  A
O80         Zr88   2.445       .  S
O80          C99   1.287       .  A
O81          C98   1.282       .  A
O82         Zr90   2.426       .  S
O82          C97   1.283       .  A
O83         Zr88   2.406       .  S
O83         Zr90   2.379       .  S
O84         Zr89   2.411       .  S
O84         Zr90   2.376       .  S
O84         H119   0.964       .  S
O85         Zr88   2.404       .  S
O85        Zr105   2.407       .  S
O85         H122   0.965       .  S
O86         Zr89   2.403       .  S
O86        Zr105   2.392       .  S
Zr87        O112   2.444   1_655  S
Zr87        O106   2.444       .  S
Zr87        O114   2.403   1_655  S
Zr87        O102   2.421       .  S
Zr87         O93   2.402       .  S
Zr87         O94   2.400       .  S
Zr87         O95   2.373       .  S
Zr87         O96   2.380       .  S
Zr88        O107   2.436       .  S
Zr88        O100   2.434       .  S
Zr88        O101   2.462       .  S
Zr88         O94   2.397       .  S
Zr88         O95   2.391       .  S
Zr89         O91   2.435   1_655  S
Zr89        O113   2.436   1_655  S
Zr89        O115   2.499   1_655  S
Zr89         O93   2.389       .  S
Zr89         O96   2.390       .  S
Zr90        O116   2.435   1_655  S
Zr90        O117   2.436   1_655  S
Zr90         O92   2.436       .  S
Zr90         O93   2.401       .  S
Zr90         O94   2.396       .  S
O91         H128   0.990       .  S
O92         H123   0.990       .  S
O92         H137   0.990       .  S
O94         H120   0.966       .  S
O95        Zr105   2.376       .  S
O96        Zr105   2.375       .  S
O96         H121   0.966       .  S
C97         C545   1.500       .  S
C98         C681   1.483       .  S
C99         C609   1.491       .  S
O100        H136   0.990       .  S
O101        C103   1.291       .  A
O102        C103   1.284       .  A
C103        C425   1.486       .  S
O104       Zr105   2.439       .  S
O104        H133   0.990       .  S
Zr105       O108   2.438       .  S
Zr105       O109   2.439       .  S
Zr105       O110   2.442       .  S
O106        C111   1.286       .  A
O107        H124   0.990       .  S
O107        H139   0.990       .  S
O108        H125   0.990       .  S
O109        H129   0.990       .  S
O109        H138   0.990       .  S
O110        C111   1.285       .  A
C111        C369   1.484       .  S
O112        H131   0.990       .  S
O112        H135   0.990       .  S
O113        H127   0.990       .  S
O113        H134   0.990       .  S
O114        C118   1.280       .  A
O115        C118   1.297       .  A
O116        H126   0.990       .  S
O117        H130   0.990       .  S
C118        C273   1.502       .  S
Zr141       O142   2.442       .  S
Zr141       O143   2.444       .  S
Zr141       O144   2.394       .  S
Zr141       O147   2.402       .  S
Zr141       O149   2.377       .  S
Zr141       O150   2.368   1_556  S
Zr141       O151   2.412       .  S
Zr141       O152   2.401   1_556  S
O142        H198   0.991       .  S
O142        H206   0.990       .  S
O143        C163   1.284   1_556  A
O144        C165   1.276       .  A
O145       Zr155   2.472       .  S
O145        C164   1.292       .  A
O146       Zr154   2.474       .  S
O146        C165   1.291       .  A
O147        C164   1.278   1_556  A
O148       Zr156   2.424       .  S
O148        C163   1.281       .  A
O149       Zr154   2.408       .  S
O149       Zr156   2.378   1_556  S
O150       Zr155   2.393       .  S
O150       Zr156   2.377       .  S
O150        H185   0.965       .  S
O151       Zr154   2.408       .  S
O151       Zr171   2.404   1_556  S
O151        H188   0.965       .  S
O152       Zr155   2.388       .  S
O152       Zr171   2.406       .  S
Zr153       O178   2.440       .  S
Zr153       O172   2.421       .  S
Zr153       O180   2.392       .  S
Zr153       O168   2.396       .  S
Zr153       O159   2.389       .  S
Zr153       O160   2.398       .  S
Zr153       O161   2.369       .  S
Zr153       O162   2.376       .  S
Zr154       O173   2.435       .  S
Zr154       O166   2.434       .  S
Zr154       O167   2.488   1_556  S
Zr154       O160   2.404   1_556  S
Zr154       O161   2.397   1_556  S
Zr155       O157   2.434       .  S
Zr155       O179   2.437       .  S
Zr155       O181   2.452       .  S
Zr155       O159   2.394       .  S
Zr155       O162   2.400       .  S
Zr156       O182   2.434       .  S
Zr156       O183   2.435       .  S
Zr156       O158   2.436       .  S
Zr156       O159   2.389       .  S
Zr156       O160   2.392       .  S
O157        H194   0.990       .  S
O158        H189   0.990       .  S
O158        H203   0.990       .  S
O160        H186   0.965       .  S
O161       Zr171   2.375       .  S
O162       Zr171   2.375       .  S
O162        H187   0.966       .  S
C163        C489   1.473   1_554  S
C164        C561   1.477       .  S
C165        C625   1.468       .  S
O166        H202   0.990       .  S
O167        C169   1.294       .  A
O168        C169   1.279       .  A
C169        C393   1.488       .  S
O170       Zr171   2.440   1_556  S
O170        H199   0.990       .  S
Zr171       O174   2.437   1_554  S
Zr171       O175   2.440       .  S
Zr171       O176   2.451       .  S
O172        C177   1.282       .  A
O173        H190   0.990       .  S
O173        H205   0.990       .  S
O174        H191   0.990       .  S
O175        H195   0.990       .  S
O175        H204   0.990       .  S
O176        C177   1.287       .  A
C177        C329   1.490       .  S
O178        H197   0.990       .  S
O178        H201   0.990       .  S
O179        H193   0.990       .  S
O179        H200   0.990       .  S
O180        C184   1.277       .  A
O181        C184   1.287       .  A
O182        H192   0.990       .  S
O183        H196   0.990       .  S
C184        C289   1.459       .  S
Zr207       O208   2.444       .  S
Zr207       O209   2.440       .  S
Zr207       O210   2.416       .  S
Zr207       O213   2.422       .  S
Zr207       O215   2.376       .  S
Zr207       O216   2.382       .  S
Zr207       O217   2.412       .  S
Zr207       O218   2.396       .  S
O208        H264   0.991       .  S
O208        H272   0.991       .  S
O209        C229   1.284       .  A
O210        C231   1.279       .  A
O211       Zr221   2.470       .  S
O211        C230   1.290       .  A
O212       Zr220   2.446   1_565  S
O212        C231   1.287       .  A
O213        C230   1.283       .  A
O214       Zr222   2.422       .  S
O214        C229   1.281       .  A
O215       Zr220   2.401   1_565  S
O215       Zr222   2.375       .  S
O216       Zr221   2.406       .  S
O216       Zr222   2.383       .  S
O216        H251   0.967       .  S
O217       Zr220   2.408   1_565  S
O217       Zr237   2.390       .  S
O217        H254   0.964       .  S
O218       Zr221   2.395       .  S
O218       Zr237   2.392       .  S
Zr219       O244   2.445       .  S
Zr219       O238   2.439       .  S
Zr219       O246   2.404       .  S
Zr219       O234   2.431       .  S
Zr219       O225   2.406   1_545  S
Zr219       O226   2.398       .  S
Zr219       O227   2.374       .  S
Zr219       O228   2.382   1_545  S
Zr220       O239   2.436       .  S
Zr220       O232   2.435       .  S
Zr220       O233   2.466       .  S
Zr220       O226   2.399       .  S
Zr220       O227   2.390       .  S
Zr221       O223   2.436       .  S
Zr221       O245   2.436       .  S
Zr221       O247   2.470       .  S
Zr221       O225   2.398       .  S
Zr221       O228   2.397       .  S
Zr222       O248   2.435       .  S
Zr222       O249   2.436   1_565  S
Zr222       O224   2.437   1_565  S
Zr222       O225   2.404       .  S
Zr222       O226   2.392   1_565  S
O223        H260   0.990       .  S
O224        H255   0.990       .  S
O224        H269   0.990       .  S
O226        H252   0.966       .  S
O227       Zr237   2.379   1_545  S
O228       Zr237   2.369       .  S
O228        H253   0.965       .  S
C229        C521   1.482       .  S
C230        C649   1.490       .  S
C231        C705   1.478       .  S
O232        H268   0.990       .  S
O233        C235   1.291       .  A
O234        C235   1.285       .  A
C235        C313   1.489       .  S
O236       Zr237   2.438       .  S
O236        H265   0.990       .  S
Zr237       O240   2.436       .  S
Zr237       O241   2.440       .  S
Zr237       O242   2.428       .  S
O238        C243   1.286       .  A
O239        H256   0.990       .  S
O239        H271   0.990       .  S
O240        H257   0.990       .  S
O241        H261   0.990       .  S
O241        H270   0.990       .  S
O242        C243   1.284   1_565  A
C243        C345   1.479       .  S
O244        H263   0.990       .  S
O244        H267   0.990       .  S
O245        H259   0.990       .  S
O245        H266   0.990       .  S
O246        C250   1.280   1_545  A
O247        C250   1.293       .  A
O248        H258   0.990       .  S
O249        H262   0.990       .  S
C250        C433   1.485       .  S
C273        C274   1.414       .  A
C273        C278   1.410       .  A
C274        C275   1.398       .  A
C274        H283   1.083       .  S
C275        C276   1.398       .  A
C275        H284   1.084       .  S
C276        C282   1.413       .  A
C276        C277   1.413       .  A
C277        C279   1.398       .  A
C277        C278   1.418       .  A
C278        H285   1.084       .  S
C279        C280   1.401       .  A
C279        H286   1.084       .  S
C280        C281   1.421       .  A
C280        H287   1.077       .  S
C281        C282   1.417       .  A
C282        H288   1.084       .  S
C289        C290   1.401       .  A
C289        C294   1.401       .  A
C290        C291   1.397       .  A
C290        H299   1.083       .  S
C291        C292   1.404       .  A
C291        H300   1.084       .  S
C292        C298   1.403       .  A
C292        C293   1.412       .  A
C293        C295   1.397       .  A
C293        C294   1.402       .  A
C294        H301   1.085       .  S
C295        C296   1.393       .  A
C295        H302   1.084       .  S
C296        C297   1.416       .  A
C296        H303   1.083       .  S
C297        C298   1.415       .  A
C298        H304   1.078       .  S
C305        C306   1.415       .  A
C305        C310   1.424       .  A
C306        C307   1.398       .  A
C306        H315   1.077       .  S
C307        C308   1.399       .  A
C307        H316   1.084       .  S
C308        C314   1.406       .  A
C308        C309   1.409       .  A
C309        C311   1.408       .  A
C309        C310   1.412       .  A
C310        H317   1.084       .  S
C311        C312   1.406       .  A
C311        H318   1.083       .  S
C312        C313   1.405       .  A
C312        H319   1.083       .  S
C313        C314   1.409       .  A
C314        H320   1.084       .  S
C321        C322   1.418       .  A
C321        C326   1.414       .  A
C322        C323   1.397       .  A
C322        H331   1.079       .  S
C323        C324   1.398       .  A
C323        H332   1.084       .  S
C324        C330   1.408       .  A
C324        C325   1.412       .  A
C325        C327   1.401       .  A
C325        C326   1.408       .  A
C326        H333   1.084       .  S
C327        C328   1.399       .  A
C327        H334   1.084       .  S
C328        C329   1.409       .  A
C328        H335   1.083       .  S
C329        C330   1.407       .  A
C330        H336   1.084       .  S
C337        C338   1.415       .  A
C337        C342   1.416       .  A
C338        C339   1.397       .  A
C338        H347   1.080       .  S
C339        C340   1.398       .  A
C339        H348   1.084       .  S
C340        C346   1.405       .  A
C340        C341   1.412       .  A
C341        C343   1.403       .  A
C341        C342   1.406       .  A
C342        H349   1.084       .  S
C343        C344   1.400       .  A
C343        H350   1.084       .  S
C344        C345   1.406       .  A
C344        H351   1.083       .  S
C345        C346   1.404       .  A
C346        H352   1.085       .  S
C353        C354   1.414   1_545  A
C353        C358   1.419       .  A
C354        C355   1.390       .  A
C354        H363   1.083       .  S
C355        C356   1.395       .  A
C355        H364   1.084       .  S
C356        C362   1.401       .  A
C356        C357   1.413   1_565  A
C357        C359   1.409       .  A
C357        C358   1.415       .  A
C358        H365   1.082       .  S
C359        C360   1.407       .  A
C359        H366   1.083   1_554  S
C360        C361   1.404       .  A
C360        H367   1.083   1_554  S
C361        C362   1.401   1_545  A
C362        H368   1.085       .  S
C369        C370   1.406       .  A
C369        C374   1.405       .  A
C370        C371   1.402       .  A
C370        H379   1.083       .  S
C371        C372   1.404       .  A
C371        H380   1.083       .  S
C372        C378   1.412       .  A
C372        C373   1.411       .  A
C373        C375   1.396       .  A
C373        C374   1.409       .  A
C374        H381   1.084       .  S
C375        C376   1.397       .  A
C375        H382   1.084       .  S
C376        C377   1.419       .  A
C376        H383   1.075       .  S
C377        C378   1.421       .  A
C378        H384   1.084   1_655  S
C385        C386   1.419       .  A
C385        C390   1.411       .  A
C386        C387   1.402       .  A
C386        H395   1.083       .  S
C387        C388   1.400       .  A
C387        H396   1.083   1_554  S
C388        C394   1.418       .  A
C388        C389   1.415       .  A
C389        C391   1.396       .  A
C389        C390   1.405       .  A
C390        H397   1.079       .  S
C391        C392   1.390       .  A
C391        H398   1.084       .  S
C392        C393   1.410       .  A
C392        H399   1.083       .  S
C393        C394   1.409       .  A
C394        H400   1.084   1_554  S
C401        C402   1.408   1_655  A
C401        C406   1.407       .  A
C402        C403   1.402       .  A
C402        H411   1.083       .  S
C403        C404   1.404       .  A
C403        H412   1.083       .  S
C404        C410   1.408       .  A
C404        C405   1.410   1_455  A
C405        C407   1.396       .  A
C405        C406   1.402       .  A
C406        H413   1.084       .  S
C407        C408   1.393       .  A
C407        H414   1.084       .  S
C408        C409   1.418       .  A
C408        H415   1.079       .  S
C409        C410   1.417   1_655  A
C410        H416   1.084       .  S
C417        C418   1.415       .  A
C417        C422   1.422   1_455  A
C418        C419   1.398       .  A
C418        H427   1.077       .  S
C419        C420   1.400   1_455  A
C419        H428   1.084       .  S
C420        C426   1.404       .  A
C420        C421   1.408       .  A
C421        C423   1.407       .  A
C421        C422   1.408       .  A
C422        H429   1.084       .  S
C423        C424   1.404       .  A
C423        H430   1.083       .  S
C424        C425   1.405       .  A
C424        H431   1.083       .  S
C425        C426   1.409       .  A
C426        H432   1.084   1_655  S
C433        C434   1.411   1_565  A
C433        C438   1.400       .  A
C434        C435   1.400       .  A
C434        H443   1.083       .  S
C435        C436   1.401       .  A
C435        H444   1.084       .  S
C436        C442   1.413       .  A
C436        C437   1.414   1_545  A
C437        C439   1.391       .  A
C437        C438   1.405       .  A
C438        H445   1.084       .  S
C439        C440   1.390       .  A
C439        H446   1.084       .  S
C440        C441   1.424   1_565  A
C440        H447   1.079       .  S
C441        C442   1.415       .  A
C442        H448   1.084       .  S
C449        C450   1.416   1_645  A
C449        C454   1.418       .  A
C450        C451   1.396   1_455  A
C450        H459   1.082       .  S
C451        C452   1.398       .  A
C451        H460   1.084       .  S
C452        C458   1.407       .  A
C452        C453   1.412   1_565  A
C453        C455   1.404       .  A
C453        C454   1.409       .  A
C454        H461   1.079       .  S
C455        C456   1.400       .  A
C455        H462   1.084       .  S
C456        C457   1.404       .  A
C456        H463   1.083       .  S
C457        C458   1.404   1_545  A
C458        H464   1.085       .  S
C465        C466   1.415       .  A
C465        C470   1.416   1_556  A
C466        C467   1.394       .  A
C466        H475   1.078       .  S
C467        C468   1.397   1_556  A
C467        H476   1.084       .  S
C468        C474   1.399       .  A
C468        C469   1.407       .  A
C469        C471   1.400       .  A
C469        C470   1.403       .  A
C470        H477   1.084       .  S
C471        C472   1.398       .  A
C471        H478   1.084       .  S
C472        C473   1.415       .  A
C472        H479   1.078       .  S
C473        C474   1.414       .  A
C474        H480   1.084   1_565  S
C481        C482   1.414   1_556  A
C481        C486   1.417       .  A
C482        C483   1.403       .  A
C482        H491   1.079       .  S
C483        C484   1.403       .  A
C483        H492   1.084       .  S
C484        C490   1.410       .  A
C484        C485   1.411   1_554  A
C485        C487   1.403       .  A
C485        C486   1.402       .  A
C486        H493   1.084       .  S
C487        C488   1.397       .  A
C487        H494   1.084       .  S
C488        C489   1.401       .  A
C488        H495   1.083       .  S
C489        C490   1.407   1_556  A
C490        H496   1.084       .  S
C497        C498   1.420   1_556  A
C497        C502   1.413       .  A
C498        C499   1.399       .  A
C498        H507   1.079       .  S
C499        C500   1.398       .  A
C499        H508   1.084       .  S
C500        C506   1.414       .  A
C500        C501   1.414   1_554  A
C501        C503   1.399       .  A
C501        C502   1.408       .  A
C502        H509   1.084       .  S
C503        C504   1.396       .  A
C503        H510   1.084       .  S
C504        C505   1.410   1_556  A
C504        H511   1.084       .  S
C505        C506   1.405       .  A
C506        H512   1.084       .  S
C513        C514   1.416       .  A
C513        C518   1.415       .  A
C514        C515   1.396       .  A
C514        H523   1.080       .  S
C515        C516   1.398       .  A
C515        H524   1.084       .  S
C516        C522   1.406       .  A
C516        C517   1.412       .  A
C517        C519   1.402       .  A
C517        C518   1.407       .  A
C518        H525   1.084       .  S
C519        C520   1.399       .  A
C519        H526   1.084       .  S
C520        C521   1.407       .  A
C520        H527   1.083       .  S
C521        C522   1.405       .  A
C522        H528   1.084       .  S
C529        C530   1.416       .  A
C529        C534   1.416       .  A
C530        C531   1.396       .  A
C530        H539   1.083       .  S
C531        C532   1.400       .  A
C531        H540   1.084       .  S
C532        C538   1.405       .  A
C532        C533   1.408       .  A
C533        C535   1.398   1_554  A
C533        C534   1.403       .  A
C534        H541   1.078   1_655  S
C535        C536   1.394       .  A
C535        H542   1.084       .  S
C536        C537   1.416       .  A
C536        H543   1.083       .  S
C537        C538   1.417   1_556  A
C538        H544   1.078       .  S
C545        C546   1.409       .  A
C545        C550   1.416       .  A
C546        C547   1.395       .  A
C546        H555   1.083       .  S
C547        C548   1.399       .  A
C547        H556   1.084       .  S
C548        C554   1.407       .  A
C548        C549   1.411       .  A
C549        C551   1.405       .  A
C549        C550   1.418       .  A
C550        H557   1.084       .  S
C551        C552   1.406       .  A
C551        H558   1.083       .  S
C552        C553   1.415       .  A
C552        H559   1.083       .  S
C553        C554   1.416       .  A
C554        H560   1.080       .  S
C561        C562   1.403       .  A
C561        C566   1.406       .  A
C562        C563   1.404   1_554  A
C562        H571   1.083       .  S
C563        C564   1.406       .  A
C563        H572   1.083       .  S
C564        C570   1.410       .  A
C564        C565   1.411       .  A
C565        C567   1.399       .  A
C565        C566   1.406   1_556  A
C566        H573   1.085       .  S
C567        C568   1.398       .  A
C567        H574   1.084       .  S
C568        C569   1.416       .  A
C568        H575   1.081       .  S
C569        C570   1.417       .  A
C570        H576   1.084       .  S
C577        C578   1.415       .  A
C577        C582   1.417       .  A
C578        C579   1.395   1_556  A
C578        H587   1.083   1_556  S
C579        C580   1.398   1_554  A
C579        H588   1.084       .  S
C580        C586   1.406       .  A
C580        C581   1.412       .  A
C581        C583   1.404       .  A
C581        C582   1.407       .  A
C582        H589   1.080       .  S
C583        C584   1.400       .  A
C583        H590   1.084       .  S
C584        C585   1.404       .  A
C584        H591   1.083       .  S
C585        C586   1.404       .  A
C586        H592   1.085   1_556  S
C593        C594   1.421       .  A
C593        C598   1.411       .  A
C594        C595   1.392       .  A
C594        H603   1.079       .  S
C595        C596   1.393       .  A
C595        H604   1.084       .  S
C596        C602   1.402       .  A
C596        C597   1.410       .  A
C597        C599   1.394       .  A
C597        C598   1.402       .  A
C598        H605   1.084       .  S
C599        C600   1.393       .  A
C599        H606   1.084       .  S
C600        C601   1.421       .  A
C600        H607   1.079       .  S
C601        C602   1.409       .  A
C602        H608   1.084       .  S
C609        C610   1.406       .  A
C609        C614   1.412       .  A
C610        C611   1.400       .  A
C610        H619   1.083       .  S
C611        C612   1.405       .  A
C611        H620   1.084       .  S
C612        C618   1.408       .  A
C612        C613   1.410       .  A
C613        C615   1.401       .  A
C613        C614   1.408       .  A
C614        H621   1.084       .  S
C615        C616   1.400       .  A
C615        H622   1.083       .  S
C616        C617   1.414       .  A
C616        H623   1.083       .  S
C617        C618   1.420       .  A
C618        H624   1.079       .  S
C625        C626   1.403       .  A
C625        C630   1.403       .  A
C626        C627   1.404       .  A
C626        H635   1.083       .  S
C627        C628   1.408       .  A
C627        H636   1.083       .  S
C628        C634   1.409       .  A
C628        C629   1.411       .  A
C629        C631   1.397       .  A
C629        C630   1.401       .  A
C630        H637   1.085       .  S
C631        C632   1.393       .  A
C631        H638   1.084       .  S
C632        C633   1.416       .  A
C632        H639   1.083       .  S
C633        C634   1.419       .  A
C634        H640   1.078       .  S
C641        C642   1.416       .  A
C641        C646   1.418       .  A
C642        C643   1.404       .  A
C642        H651   1.083       .  S
C643        C644   1.402       .  A
C643        H652   1.083       .  S
C644        C650   1.417       .  A
C644        C645   1.412       .  A
C645        C647   1.400       .  A
C645        C646   1.406       .  A
C646        H653   1.079       .  S
C647        C648   1.395       .  A
C647        H654   1.084       .  S
C648        C649   1.407       .  A
C648        H655   1.084       .  S
C649        C650   1.410       .  A
C650        H656   1.084       .  S
C657        C658   1.415       .  A
C657        C662   1.410       .  A
C658        C659   1.392       .  A
C658        H667   1.083       .  S
C659        C660   1.397       .  A
C659        H668   1.084       .  S
C660        C666   1.398       .  A
C660        C661   1.410       .  A
C661        C663   1.397   1_565  A
C661        C662   1.398       .  A
C662        H669   1.079       .  S
C663        C664   1.392       .  A
C663        H670   1.084       .  S
C664        C665   1.415       .  A
C664        H671   1.083   1_655  S
C665        C666   1.411   1_545  A
C666        H672   1.079       .  S
C673        C674   1.417       .  A
C673        C678   1.413       .  A
C674        C675   1.395       .  A
C674        H683   1.083       .  S
C675        C676   1.397       .  A
C675        H684   1.084       .  S
C676        C682   1.408       .  A
C676        C677   1.414       .  A
C677        C679   1.400       .  A
C677        C678   1.406       .  A
C678        H685   1.079       .  S
C679        C680   1.396       .  A
C679        H686   1.084       .  S
C680        C681   1.409       .  A
C680        H687   1.083       .  S
C681        C682   1.404       .  A
C682        H688   1.084       .  S
C689        C690   1.415       .  A
C689        C694   1.417       .  A
C690        C691   1.396       .  A
C690        H699   1.083       .  S
C691        C692   1.399       .  A
C691        H700   1.084       .  S
C692        C698   1.404       .  A
C692        C693   1.411       .  A
C693        C695   1.404       .  A
C693        C694   1.401       .  A
C694        H701   1.079       .  S
C695        C696   1.396       .  A
C695        H702   1.084       .  S
C696        C697   1.401       .  A
C696        H703   1.083       .  S
C697        C698   1.403       .  A
C698        H704   1.085       .  S
C705        C706   1.409       .  A
C705        C710   1.400       .  A
C706        C707   1.399       .  A
C706        H715   1.083       .  S
C707        C708   1.401       .  A
C707        H716   1.084       .  S
C708        C714   1.408       .  A
C708        C709   1.413       .  A
C709        C711   1.391       .  A
C709        C710   1.401       .  A
C710        H717   1.085       .  S
C711        C712   1.389       .  A
C711        H718   1.084       .  S
C712        C713   1.421       .  A
C712        H719   1.079       .  S
C713        C714   1.414       .  A
C714        H720   1.084       .  S
