geometry optimzed in LAMMPS
_audit_creation_date              2020-11-30 
_audit_creation_method            'lammps2cif' 
_symmetry_space_group_name_H-M    'P1' 
_symmetry_Int_Tables_number       1 
_symmetry_cell_setting            triclinic 
loop_ 
_symmetry_equiv_pos_as_xyz 
  x,y,z 
_cell_length_a                    33.44741309829236 
_cell_length_b                    33.245147643432986 
_cell_length_c                    33.3883580878665 
_cell_angle_alpha                 89.88816519708936 
_cell_angle_beta                  90.15117692001344 
_cell_angle_gamma                 90.20250997598188 
loop_ 
_atom_site_label 
_atom_site_type_symbol 
_atom_site_fract_x 
_atom_site_fract_y 
_atom_site_fract_z 
_atom_site_charge 
O1          O  0.99586066  0.11285670  0.05771239    -0.86680
O2          O  0.00352395  0.88886127  0.05828028    -0.86840
O3          O  0.93550220  0.00060180  0.10697078    -0.88510
O4          O  0.06250570  0.00299538  0.10288219    -0.87270
O5          O  0.10863965  0.00745530  0.05248643    -0.86860
O6          O  0.88501349  0.00172970  0.06027842    -0.88230
O7          O  0.00429496  0.93767321  0.10659349    -0.86710
O8          O  0.00009316  0.06323562  0.10558864    -0.86290
Zr9        Zr  0.99784386  0.00054132  0.07245592     2.84310
O10         O  0.03745589  0.96080881  0.03251645    -1.08270
O11         O  0.95441323  0.04068776  0.03576492    -1.09000
C12         C  0.99927226  0.09982201  0.09381610     1.06430
C13         C  0.00630487  0.90108683  0.09463142     1.06370
C14         C  0.89867352  0.00156010  0.09612815     1.09360
C15         C  0.09832470  0.00638678  0.08953481     1.07140
H16         H  0.94100815  0.94224494  0.05400486     0.32690
O17         O  0.95610674  0.95910238  0.03591911    -1.29220
H18         H  0.05327656  0.05994013  0.04760718     0.32370
O19         O  0.03600734  0.04251557  0.03223911    -1.30900
O20         O  0.99454388  0.88634102  0.93196242    -0.86670
O21         O  0.98683018  0.11403497  0.93106869    -0.88170
O22         O  0.88374482  0.93433005  0.00269731    -0.86750
O23         O  0.10675069  0.93994144  0.99762236    -0.86800
O24         O  0.10500596  0.06641287  0.98313863    -0.86510
O25         O  0.88050543  0.06263104  0.98931615    -0.86310
O26         O  0.92705347  0.98938392  0.88145354    -0.86690
O27         O  0.05212996  0.00168240  0.87982694    -0.86150
O28         O  0.88235463  0.98549859  0.93312886    -0.87210
O29         O  0.10320829  0.99853819  0.92588820    -0.86370
O30         O  0.93239686  0.88611805  0.99980089    -0.86770
O31         O  0.92903143  0.11143461  0.99283523    -0.86960
O32         O  0.05586596  0.11425124  0.98734925    -0.86140
O33         O  0.06020384  0.88949366  0.99631276    -0.86550
O34         O  0.99106342  0.93454170  0.88307585    -0.86840
O35         O  0.98468261  0.06524112  0.88225435    -0.88180
Zr36       Zr  0.99575207  0.92055767  0.99441395     2.83100
Zr37       Zr  0.99285394  0.08015131  0.99355039     2.83500
Zr38       Zr  0.91475711  0.99902491  0.99613056     2.84090
Zr39       Zr  0.07305000  0.00248526  0.99010159     2.83360
Zr40       Zr  0.98981370  0.99995559  0.91393185     2.84220
O41         O  0.03136929  0.04170339  0.95070115    -1.08750
O42         O  0.95251537  0.95823720  0.95532067    -1.08260
C43         C  0.99129436  0.89779876  0.89546069     1.06400
C44         C  0.98351015  0.10182015  0.89485407     1.09020
C45         C  0.89588098  0.89770473  0.00373778     1.06580
C46         C  0.09610098  0.90286758  0.99929550     1.06940
C47         C  0.09222143  0.10272804  0.98316192     1.06520
C48         C  0.89276181  0.09944580  0.98889856     1.06070
C49         C  0.89235262  0.98228474  0.89606218     1.06500
C50         C  0.08894973  0.99932040  0.89022890     1.06010
H51         H  0.93273165  0.05606265  0.93726705     0.32690
O52         O  0.95084022  0.04037264  0.95422506    -1.29850
H53         H  0.04901207  0.94400940  0.93478138     0.32710
O54         O  0.03310041  0.96048235  0.95140118    -1.31240
C55         C  0.99877786  0.23082395  0.28772957     0.02940
C56         C  0.00084368  0.19947763  0.26032419    -0.13210
C57         C  0.00864653  0.20730856  0.22090700     0.00440
C58         C  0.01355795  0.24592296  0.20704117    -0.11730
C59         C  0.00255427  0.27836787  0.23073856     0.02930
C60         C  0.99740002  0.27150132  0.27297235    -0.11150
H61         H  0.99768638  0.16837517  0.26995491     0.08530
H62         H  0.02028545  0.25028371  0.17550457     0.06060
H63         H  0.99196866  0.29631468  0.29312933     0.05900
O64         O  0.00237688  0.11594379  0.43789978    -0.75480
O65         O  0.99981225  0.06940021  0.38735435    -0.54390
C66         C  0.00051760  0.10624248  0.40090285     0.78250
O67         O  0.12129146  0.99790285  0.56037123    -0.60080
O68         O  0.07750793  0.00161071  0.61280900    -0.53110
C69         C  0.11354802  0.99986212  0.59785396     0.70260
O70         O  0.11492331  0.99338948  0.43216883    -0.74640
O71         O  0.06622516  0.99872611  0.38405373    -0.55200
C72         C  0.10342363  0.99523529  0.39560958     0.76270
O73         O  0.00870378  0.11428921  0.56692213    -0.59780
O74         O  0.01119963  0.06761416  0.61727062    -0.52900
C75         C  0.01015978  0.10446811  0.60407172     0.72860
Zr76       Zr  0.00616065  0.08304006  0.50181781     2.54710
O77         O  0.06196237  0.13015680  0.49923049    -0.80350
O78         O  0.95255994  0.13232608  0.50585997    -0.93770
Zr79       Zr  0.08549959  0.99792164  0.49770751     2.64680
O80         O  0.13380304  0.05263057  0.49202010    -0.98720
O81         O  0.13228086  0.94197618  0.49768316    -0.80780
O82         O  0.04444979  0.04122209  0.45916772    -0.84140
O83         O  0.04857101  0.04109148  0.54005455    -2.18850
O84         O  0.89333142  0.00779946  0.57153680    -0.67530
O85         O  0.94197389  0.00598861  0.61970058    -0.52090
C86         C  0.90461307  0.00825827  0.60834203     0.71240
O87         O  0.99472448  0.88557204  0.43719162    -0.60440
O88         O  0.99538017  0.93269595  0.38697215    -0.52410
C89         C  0.99397483  0.89567344  0.40012428     0.73040
O90         O  0.00325637  0.88687095  0.56621721    -0.71830
O91         O  0.00900108  0.93297647  0.61674771    -0.50510
C92         C  0.00636000  0.89625125  0.60329482     0.74430
O93         O  0.88646593  0.00585759  0.44121873    -0.67160
O94         O  0.93122214  0.00144110  0.38954795    -0.54360
C95         C  0.89503660  0.00381236  0.40380505     0.72810
Zr96       Zr  0.92129871  0.00331851  0.50498196     2.77540
O97         O  0.87296721  0.94835271  0.50687003    -0.97910
O98         O  0.87354724  0.05839666  0.50585365    -0.78730
Zr99       Zr  0.00038807  0.91834813  0.50145361     2.70070
O100        O  0.94476486  0.87108230  0.50532638    -0.79980
O101        O  0.05411137  0.86928353  0.49730468    -0.99060
Zr102      Zr  0.99987585  0.00084702  0.41955744     2.21500
Zr103      Zr  0.00785936  0.00070506  0.58353919     2.11130
O104        O  0.96252142  0.96046879  0.54405131    -2.47750
O105        O  0.95864242  0.96057080  0.46265914    -0.79770
O106        O  0.96546709  0.04324129  0.54388125    -0.71970
O107        O  0.04148308  0.95764945  0.45915925    -2.32920
O108        O  0.96171445  0.04362821  0.46287151    -2.29130
O109        O  0.04540762  0.95750377  0.54020890    -0.73730
H110        H  0.06664705  0.05771565  0.55544663     0.78270
H111        H  0.05669260  0.93996741  0.44213252     0.79360
H112        H  0.94599699  0.94414169  0.56134007     0.81580
H113        H  0.94467951  0.06105673  0.44725787     0.79190
H114        H  0.12143364  0.92276994  0.47777633     0.42230
H115        H  0.07146394  0.87505218  0.52068571     0.41200
H116        H  0.92500423  0.88126537  0.48567428     0.40870
H117        H  0.87741347  0.93488854  0.53296593     0.38810
H118        H  0.88537973  0.07840658  0.52438072     0.41940
H119        H  0.93524137  0.12702452  0.48235389     0.36720
H120        H  0.07854906  0.12071482  0.47662613     0.42840
H121        H  0.13026155  0.06883048  0.51659451     0.39250
H122        H  0.84675823  0.96178533  0.50974482     0.44170
H123        H  0.96558586  0.15844319  0.49989424     0.42900
H124        H  0.16014044  0.03956205  0.49553086     0.43030
H125        H  0.04122379  0.84320823  0.50373150     0.43390
C126        C  0.76825766  0.00283737  0.28868477     0.02940
C127        C  0.72643465  0.00164472  0.27859576    -0.13210
C128        C  0.71521693  0.99854060  0.23712455     0.00440
C129        C  0.74483876  0.99204240  0.20895544    -0.11730
C130        C  0.78439847  0.99746203  0.21880853     0.02930
C131        C  0.79580215  0.00530552  0.25764249    -0.11150
H132        H  0.70387112  0.00314283  0.30169122     0.08530
H133        H  0.73686128  0.98659410  0.17783938     0.06060
H134        H  0.82725616  0.01036204  0.26417051     0.05900
C135        C  0.00682553  0.71710249  0.23263417     0.02940
C136        C  0.02686826  0.74435098  0.20821529    -0.13210
C137        C  0.02612475  0.78499582  0.21680799     0.00440
C138        C  0.01366351  0.79803484  0.25403119    -0.11730
C139        C  0.00114138  0.77081282  0.28314679     0.02930
C140        C  0.99481032  0.72968880  0.27184142    -0.11150
H141        H  0.03677103  0.73496109  0.17870320     0.08530
H142        H  0.01276747  0.83001510  0.26039899     0.06060
H143        H  0.98100547  0.70864086  0.29238031     0.05900
C144        C  0.28440349  0.00402510  0.23104469     0.02940
C145        C  0.27193811  0.99479411  0.27118724    -0.13210
C146        C  0.22997401  0.99507125  0.28012759     0.00440
C147        C  0.20327214  0.99872549  0.24840875    -0.11730
C148        C  0.21578343  0.01303314  0.21158946     0.02930
C149        C  0.25608564  0.01838951  0.20410787    -0.11150
H150        H  0.29368108  0.98742689  0.29407353     0.08530
H151        H  0.17177024  0.99284850  0.25350244     0.06060
H152        H  0.26551492  0.02861353  0.17468694     0.05900
C153        C  0.98637177  0.76586624  0.71371741     0.02940
C154        C  0.95767567  0.78622569  0.73621561    -0.13210
C155        C  0.95558590  0.77953921  0.77715982     0.00440
C156        C  0.96757320  0.74199333  0.79146267    -0.11730
C157        C  0.99191131  0.71706273  0.76871306     0.02930
C158        C  0.00410448  0.73039765  0.73000724    -0.11150
H159        H  0.94338446  0.81262474  0.72369489     0.08530
H160        H  0.96297510  0.73376854  0.82247348     0.06060
H161        H  0.02669505  0.71420327  0.71349733     0.05900
C162        C  0.23678623  0.99384249  0.71212124     0.02940
C163        C  0.20532187  0.98050473  0.73567362    -0.13210
C164        C  0.20794919  0.98345217  0.77631221     0.00440
C165        C  0.24288618  0.99496548  0.79493258    -0.11730
C166        C  0.27861011  0.99681378  0.77376159     0.02930
C167        C  0.27541010  0.00020125  0.73071374    -0.11150
H168        H  0.17634126  0.97366828  0.72246920     0.08530
H169        H  0.24252226  0.00023418  0.82701792     0.06060
H170        H  0.30133121  0.00740607  0.71269330     0.05900
C171        C  0.99402208  0.23024499  0.71925404     0.02940
C172        C  0.96394141  0.20954397  0.73971782    -0.13210
C173        C  0.95371611  0.22080108  0.77828951     0.00440
C174        C  0.96323726  0.25896807  0.79172808    -0.11730
C175        C  0.99306758  0.28126558  0.77264419     0.02930
C176        C  0.00954872  0.26660223  0.73605391    -0.11150
H177        H  0.95529504  0.17969764  0.72961929     0.08530
H178        H  0.95390690  0.26750292  0.82166981     0.06060
H179        H  0.03419238  0.28219764  0.72185597     0.05900
C180        C  0.77609615  0.99719903  0.72404618     0.02940
C181        C  0.79319729  0.96598313  0.74606636    -0.13210
C182        C  0.77474839  0.95100086  0.78049299     0.00440
C183        C  0.73424006  0.95793216  0.78535616    -0.11730
C184        C  0.71727190  0.99248865  0.76862175     0.02930
C185        C  0.73838333  0.01275360  0.73709330    -0.11150
H186        H  0.82369850  0.95764131  0.73924343     0.08530
H187        H  0.71878796  0.94234616  0.80935392     0.06060
H188        H  0.72615052  0.03962993  0.72353910     0.05900
O189        O  0.56725165  0.11649529  0.01079550    -0.75480
O190        O  0.61830367  0.07105348  0.00935055    -0.54390
C191        C  0.60452477  0.10753929  0.01138113     0.78250
O192        O  0.43838040  0.99956950  0.11660672    -0.60080
O193        O  0.38860963  0.99669005  0.06952812    -0.53110
C194        C  0.40142728  0.99798944  0.10645891     0.70260
O195        O  0.56654439  0.99903288  0.11804956    -0.74640
O196        O  0.61727148  0.00267034  0.07218985    -0.55200
C197        C  0.60356965  0.00062646  0.10879320     0.76270
O198        O  0.43710347  0.11475830  0.00717747    -0.59780
O199        O  0.38774281  0.06702312  0.00663218    -0.52900
C200        C  0.40018419  0.10429243  0.00771115     0.72860
Zr201      Zr  0.50252048  0.08451699  0.00446511     2.54710
O202        O  0.50060852  0.13633734  0.05579638    -0.80350
O203        O  0.50182135  0.13019372  0.94730047    -0.93770
Zr204      Zr  0.50307537  0.99944555  0.08478555     2.64680
O205        O  0.50501948  0.05382234  0.13357609    -0.98720
O206        O  0.50014589  0.94354002  0.13186421    -0.80780
O207        O  0.54299550  0.04303245  0.04536581    -0.84140
O208        O  0.46271382  0.04174693  0.04494779    -2.18850
O209        O  0.43969543  0.00725930  0.88758727    -0.67530
O210        O  0.39026374  0.00158778  0.93452034    -0.52090
C211        C  0.40279849  0.00473275  0.89763816     0.71240
O212        O  0.57157363  0.89011921  0.99358544    -0.60440
O213        O  0.62095191  0.93762881  0.99706840    -0.52410
C214        C  0.60858192  0.90056138  0.99366093     0.73040
O215        O  0.44200084  0.88567664  0.00281619    -0.71830
O216        O  0.39089975  0.93136197  0.00092949    -0.50510
C217        C  0.40477803  0.89473314  0.00218802     0.74430
O218        O  0.56942927  0.00630443  0.88931082    -0.67160
O219        O  0.61955003  0.00900134  0.93600270    -0.54360
C220        C  0.60653116  0.00835904  0.89906476     0.72810
Zr221      Zr  0.50427818  0.00468848  0.92028786     2.77540
O222        O  0.50516566  0.94994699  0.87186828    -0.97910
O223        O  0.50552516  0.05998802  0.87239743    -0.78730
Zr224      Zr  0.50593278  0.91947921  0.00041920     2.70070
O225        O  0.50258800  0.87013805  0.94674147    -0.79980
O226        O  0.51322836  0.87179675  0.05533936    -0.99060
Zr227      Zr  0.58585974  0.00377760  0.00334718     2.21500
Zr228      Zr  0.42227913  0.00009048  0.00240842     2.11130
O229        O  0.46468760  0.96069030  0.95978595    -2.47750
O230        O  0.54534005  0.96273444  0.96023591    -0.79770
O231        O  0.46261432  0.04403124  0.96191979    -0.71970
O232        O  0.54523454  0.95980131  0.04362084    -2.32920
O233        O  0.54416743  0.04597938  0.96233197    -2.29130
O234        O  0.46400768  0.95775589  0.04278407    -0.73730
H235        H  0.44612087  0.05788295  0.06218105     0.78270
H236        H  0.56187578  0.94263589  0.05993714     0.79360
H237        H  0.44865279  0.94383095  0.94251842     0.81580
H238        H  0.56044086  0.06371049  0.94625423     0.79190
H239        H  0.52016868  0.92413666  0.12196413     0.42230
H240        H  0.48986072  0.87675719  0.07273888     0.41200
H241        H  0.51876258  0.88200547  0.92488918     0.40870
H242        H  0.47899081  0.93627231  0.87476600     0.38810
H243        H  0.48405046  0.07830166  0.88131624     0.41940
H244        H  0.52855748  0.12771438  0.93494528     0.36720
H245        H  0.51548036  0.12467228  0.07868701     0.42840
H246        H  0.48193209  0.07112022  0.12681311     0.39250
H247        H  0.50368604  0.96347202  0.84545869     0.44170
H248        H  0.50183574  0.15739088  0.95928591     0.42900
H249        H  0.49764466  0.04095885  0.15930268     0.43030
H250        H  0.50798584  0.84517797  0.04311992     0.43390
O251        O  0.11815483  0.43715120  0.00435363    -0.75480
O252        O  0.07170587  0.38638038  0.00644646    -0.54390
C253        C  0.10834949  0.39986597  0.00595565     0.78250
O254        O  0.00181532  0.56756151  0.11384874    -0.60080
O255        O  0.99940638  0.61750752  0.06662952    -0.53110
C256        C  0.00016960  0.60463248  0.10362376     0.70260
O257        O  0.00365583  0.43824887  0.11673258    -0.74640
O258        O  0.00247451  0.38739246  0.07083205    -0.55200
C259        C  0.00275060  0.40089330  0.10747959     0.76270
O260        O  0.11738741  0.56703502  0.99535027    -0.59780
O261        O  0.07029438  0.61671347  0.99946431    -0.52900
C262        C  0.10704427  0.60406310  0.99685703     0.72860
Zr263      Zr  0.08601832  0.50199954  0.00116352     2.54710
O264        O  0.13351973  0.50626216  0.05635226    -0.80350
O265        O  0.13456089  0.50099104  0.94686710    -0.93770
Zr266      Zr  0.00368790  0.50246564  0.08306800     2.64680
O267        O  0.05888852  0.50241723  0.13079294    -0.98720
O268        O  0.94971834  0.50322375  0.13189291    -0.80780
O269        O  0.04575325  0.46161437  0.04357322    -0.84140
O270        O  0.04514158  0.54305833  0.04197056    -2.18850
O271        O  0.00437931  0.56467964  0.88621991    -0.67530
O272        O  0.00627633  0.61585679  0.93198970    -0.52090
C273        C  0.00547619  0.60213640  0.89548321     0.71240
O274        O  0.89072271  0.43490068  0.00188064    -0.60440
O275        O  0.93765698  0.38490607  0.00365783    -0.52410
C276        C  0.90086289  0.39771821  0.00318205     0.73040
O277        O  0.88989197  0.56607785  0.99418956    -0.71830
O278        O  0.93648924  0.61654008  0.99248132    -0.50510
C279        C  0.89974006  0.60339261  0.99128572     0.74430
O280        O  0.00584904  0.43359101  0.88898611    -0.67160
O281        O  0.00746309  0.38407804  0.93662863    -0.54360
C282        C  0.00737871  0.39650935  0.89956450     0.72810
Zr283      Zr  0.00392342  0.49954916  0.91868168     2.77540
O284        O  0.94885651  0.49614455  0.87087498    -0.97910
O285        O  0.05764683  0.49959339  0.86964877    -0.78730
Zr286      Zr  0.92143512  0.50075197  0.00045980     2.70070
O287        O  0.87163942  0.49748983  0.94722945    -0.79980
O288        O  0.87457794  0.50294646  0.05609393    -0.99060
Zr289      Zr  0.00441927  0.41917459  0.00288204     2.21500
Zr290      Zr  0.00317735  0.58327308  0.99944165     2.11130
O291        O  0.96222090  0.54056154  0.95822829    -2.47750
O292        O  0.96253011  0.45932603  0.96012903    -0.79770
O293        O  0.04485570  0.54134032  0.95890347    -0.71970
O294        O  0.96227373  0.46114462  0.04297391    -2.32920
O295        O  0.04572239  0.46017155  0.96039413    -2.29130
O296        O  0.96173281  0.54233490  0.04169727    -0.73730
H297        H  0.06179349  0.56007754  0.05848116     0.78270
H298        H  0.94546081  0.44489621  0.06003147     0.79360
H299        H  0.94566058  0.55642293  0.94059457     0.81580
H300        H  0.06271886  0.44354916  0.94413177     0.79190
H301        H  0.93058274  0.48243513  0.12261998     0.42230
H302        H  0.88077282  0.52845071  0.07010373     0.41200
H303        H  0.88234238  0.47759106  0.92805009     0.40870
H304        H  0.93162875  0.51937834  0.87733321     0.38810
H305        H  0.07731619  0.51931238  0.88007171     0.41940
H306        H  0.12674314  0.47790279  0.92987339     0.36720
H307        H  0.12542455  0.48446041  0.07491014     0.42840
H308        H  0.07568591  0.52577976  0.12324526     0.39250
H309        H  0.96106505  0.50311482  0.84477214     0.44170
H310        H  0.15996803  0.49265103  0.95964955     0.42900
H311        H  0.04662691  0.51016239  0.15659903     0.43030
H312        H  0.84822919  0.50761574  0.04335187     0.43390
C313        C  0.27979192  0.22758750  0.00422626     0.02940
C314        C  0.27082119  0.26900380  0.01222729    -0.13210
C315        C  0.23307893  0.28503267  0.99943179     0.00440
C316        C  0.20626444  0.25981665  0.97970945    -0.11730
C317        C  0.21407451  0.21942613  0.97554242     0.02930
C318        C  0.25121480  0.20403865  0.98479440    -0.11150
H319        H  0.29178036  0.28759435  0.02866101     0.08530
H320        H  0.17643567  0.27046848  0.97234674     0.06060
H321        H  0.25630853  0.17206326  0.98072887     0.05900
C322        C  0.28897176  0.76866357  0.00885410     0.02940
C323        C  0.26037821  0.79622745  0.02116780    -0.13210
C324        C  0.22062377  0.78951065  0.01217977     0.00440
C325        C  0.20849418  0.75263171  0.99718073    -0.11730
C326        C  0.23436974  0.72006946  0.99748822     0.02930
C327        C  0.27640488  0.72834257  0.99991188    -0.11150
H328        H  0.26967249  0.82528920  0.03269401     0.08530
H329        H  0.17724341  0.74782350  0.98960398     0.06060
H330        H  0.29814275  0.70480007  0.99527984     0.05900
C331        C  0.77168355  0.28434821  0.98733305     0.02940
C332        C  0.78962789  0.26148426  0.95729800    -0.13210
C333        C  0.78020249  0.22092928  0.95360251     0.00440
C334        C  0.74452755  0.20675011  0.96939744    -0.11730
C335        C  0.72342395  0.22931615  0.99735607     0.02930
C336        C  0.73787212  0.26826227  0.00795214    -0.11150
H337        H  0.81736718  0.27208654  0.94405533     0.08530
H338        H  0.73636498  0.17543924  0.96504925     0.06060
H339        H  0.72385754  0.28506804  0.03179597     0.05900
C340        C  0.77474047  0.71984281  0.99994927     0.02940
C341        C  0.79407776  0.73934177  0.03149348    -0.13210
C342        C  0.78088232  0.77664411  0.04493191     0.00440
C343        C  0.74060642  0.78547113  0.03870638    -0.11730
C344        C  0.72153935  0.77050658  0.00444485     0.02930
C345        C  0.73880513  0.73688210  0.98431439    -0.11150
H346        H  0.82285638  0.72792869  0.04037183     0.08530
H347        H  0.72809223  0.81161060  0.05344153     0.06060
H348        H  0.72516723  0.72488058  0.95743000     0.05900
C349        C  0.83395399  0.69435952  0.96327638    -0.26510
C350        C  0.79792561  0.68525940  0.98341863    -0.14580
C351        C  0.79460044  0.64746017  0.00240448     0.36050
C352        C  0.82773354  0.62121603  0.00331653    -0.25950
C353        C  0.86506905  0.63195662  0.98658712    -0.15190
C354        C  0.86744076  0.66832934  0.96473801     0.37140
N355        N  0.90397093  0.67922605  0.94486296    -0.89440
H356        H  0.83721221  0.72375830  0.94956326     0.18250
H357        H  0.82489765  0.59295025  0.01927802     0.18240
N358        N  0.75831710  0.63691194  0.02301694    -0.88470
H359        H  0.90096936  0.70702556  0.93048205     0.35620
H360        H  0.90899731  0.65798037  0.92239000     0.40720
H361        H  0.75518426  0.65635790  0.04736797     0.40340
H362        H  0.76029896  0.60789649  0.03498040     0.35220
C363        C  0.83634665  0.37555243  0.97361329    -0.26510
C364        C  0.86613441  0.36909403  0.00278737    -0.14580
C365        C  0.85882179  0.33952322  0.03265290     0.36050
C366        C  0.82396292  0.31542727  0.03035017    -0.25950
C367        C  0.79550168  0.32036606  0.99952609    -0.15190
C368        C  0.80141699  0.35202764  0.97170177     0.37140
N369        N  0.77372197  0.35947387  0.93951340    -0.89440
H370        H  0.84059078  0.39894566  0.95133289     0.18250
H371        H  0.82036492  0.29084526  0.05142717     0.18240
N372        N  0.88532349  0.33347499  0.06602486    -0.88470
H373        H  0.76340522  0.38894981  0.94262587     0.35620
H374        H  0.74847631  0.34105985  0.94189455     0.40720
H375        H  0.90870008  0.35427529  0.06600421     0.40340
H376        H  0.89795409  0.30490971  0.06312809     0.35220
C377        C  0.17133868  0.63020943  0.96760647    -0.26510
C378        C  0.14140348  0.63284761  0.99727914    -0.14580
C379        C  0.14864857  0.65733846  0.03078392     0.36050
C380        C  0.18481580  0.67904714  0.03351430    -0.25950
C381        C  0.21260456  0.68065530  0.00155402    -0.15190
C382        C  0.20621438  0.65444096  0.96877646     0.37140
N383        N  0.23351682  0.65260531  0.93570628    -0.89440
H384        H  0.16703701  0.60984833  0.94263934     0.18250
H385        H  0.18907198  0.69913878  0.05873124     0.18240
N386        N  0.11930775  0.66005249  0.06206336    -0.88470
H387        H  0.24470326  0.62329829  0.93459621     0.35620
H388        H  0.25814087  0.67136146  0.94053572     0.40720
H389        H  0.09405719  0.67405237  0.04996694     0.40340
H390        H  0.12950645  0.67875986  0.08509084     0.35220
C391        C  0.15527733  0.35252053  0.04111477    -0.26510
C392        C  0.14325278  0.37186804  0.00561595    -0.14580
C393        C  0.16940975  0.37041259  0.97218418     0.36050
C394        C  0.20534405  0.34854816  0.97466977    -0.25950
C395        C  0.21519044  0.32521042  0.00852384    -0.15190
C396        C  0.19066964  0.32935889  0.04298851     0.37140
N397        N  0.19953678  0.30843965  0.07962482    -0.89440
H398        H  0.13687281  0.35517873  0.06763643     0.18250
H399        H  0.22297696  0.34515739  0.94768319     0.18240
N400        N  0.15977014  0.38916515  0.93447500    -0.88470
H401        H  0.20356545  0.33013134  0.10192137     0.35620
H402        H  0.22670020  0.29323097  0.07749748     0.40720
H403        H  0.13152950  0.40234300  0.93483653     0.40340
H404        H  0.15811448  0.36644851  0.91290256     0.35220
C405        C  0.65251971  0.21087821  0.99354490    -0.26510
C406        C  0.68843972  0.20785278  0.01487427    -0.14580
C407        C  0.69477740  0.17325183  0.03900492     0.36050
C408        C  0.66696524  0.14105605  0.03806117    -0.25950
C409        C  0.63256359  0.14279077  0.01391921    -0.15190
C410        C  0.62453255  0.17910623  0.99281576     0.37140
N411        N  0.58940923  0.18267526  0.96815177    -0.89440
H412        H  0.64799776  0.23674077  0.97425364     0.18250
H413        H  0.67264855  0.11413830  0.05548864     0.18240
N414        N  0.73050301  0.17016104  0.06287908    -0.88470
H415        H  0.59090830  0.20853674  0.95033933     0.35620
H416        H  0.56518876  0.18708673  0.98733261     0.40720
H417        H  0.75498247  0.16830322  0.04359779     0.40340
H418        H  0.73026955  0.14349499  0.07953907     0.35220
C419        C  0.35396895  0.85017363  0.96875112    -0.26510
C420        C  0.37723648  0.85909427  0.00259819    -0.14580
C421        C  0.37858444  0.83044199  0.03413450     0.36050
C422        C  0.35357189  0.79604526  0.03301045    -0.25950
C423        C  0.32820081  0.78836436  0.00034976    -0.15190
C424        C  0.33004347  0.81500069  0.96699428     0.37140
N425        N  0.30583634  0.80723105  0.93211684    -0.89440
H426        H  0.35442312  0.87077909  0.94356375     0.18250
H427        H  0.35156489  0.77674124  0.05912127     0.18240
N428        N  0.40396809  0.83731979  0.06824459    -0.88470
H429        H  0.31087357  0.82915731  0.91018977     0.35620
H430        H  0.27576995  0.80967138  0.94006780     0.40720
H431        H  0.43342073  0.83355417  0.05873952     0.40340
H432        H  0.39919993  0.81524351  0.09007971     0.35220
C433        C  0.69943721  0.83305488  0.96997469    -0.26510
C434        C  0.68847798  0.79659718  0.98895499    -0.14580
C435        C  0.65004471  0.79408604  0.00621381     0.36050
C436        C  0.62527733  0.82822213  0.00679933    -0.25950
C437        C  0.63737829  0.86577741  0.99084107    -0.15190
C438        C  0.67469222  0.86767237  0.97110911     0.37140
N439        N  0.68752854  0.90445316  0.95238916    -0.89440
H440        H  0.72908067  0.83554728  0.95716427     0.18250
H441        H  0.59649973  0.82550568  0.02141922     0.18240
N442        N  0.63607386  0.75803178  0.02558899    -0.88470
H443        H  0.71460994  0.90017909  0.93743896     0.35620
H444        H  0.69337707  0.92524371  0.97511732     0.40720
H445        H  0.65654576  0.73462512  0.02234848     0.40340
H446        H  0.61015015  0.74873061  0.01063276     0.35220
C447        C  0.33862788  0.13687454  0.03667029    -0.26510
C448        C  0.37121500  0.13882300  0.01037713    -0.14580
C449        C  0.37783340  0.17556206  0.98924984     0.36050
C450        C  0.35004543  0.20742162  0.99217435    -0.25950
C451        C  0.31623641  0.20454756  0.01665569    -0.15190
C452        C  0.31180238  0.16929620  0.04070651     0.37140
N453        N  0.27897654  0.16468870  0.06807075    -0.89440
H454        H  0.33396004  0.10995216  0.05443085     0.18250
H455        H  0.35330802  0.23356116  0.97299833     0.18240
N456        N  0.41158746  0.17978272  0.96298723    -0.88470
H457        H  0.26006604  0.14228640  0.05677877     0.35620
H458        H  0.26230198  0.19111395  0.07009609     0.40720
H459        H  0.43673522  0.18432341  0.98106662     0.40340
H460        H  0.40903623  0.20587843  0.94564956     0.35220
C461        C  0.68982336  0.03558862  0.82317146    -0.26510
C462        C  0.68213051  0.00799369  0.79191650    -0.14580
C463        C  0.64748809  0.98355347  0.79523268     0.36050
C464        C  0.62449986  0.98425241  0.83049067    -0.25950
C465        C  0.63441823  0.00880680  0.86352261    -0.15190
C466        C  0.66691677  0.03575977  0.85911450     0.37140
N467        N  0.67672816  0.06309579  0.89094343    -0.89440
H468        H  0.71637682  0.05425315  0.82130767     0.18250
H469        H  0.59889872  0.96425948  0.83242990     0.18240
N470        N  0.63641149  0.95547456  0.76438391    -0.88470
H471        H  0.70060426  0.08165624  0.88259904     0.35620
H472        H  0.68677313  0.04597398  0.91523089     0.40720
H473        H  0.65493305  0.95854724  0.73941413     0.40340
H474        H  0.60770517  0.96309904  0.75457488     0.35220
C475        C  0.98766129  0.37778616  0.82967739    -0.26510
C476        C  0.00857555  0.36759679  0.86507218    -0.14580
C477        C  0.03199138  0.33237131  0.86503473     0.36050
C478        C  0.03152266  0.30691493  0.83102234    -0.25950
C479        C  0.00815660  0.31578286  0.79684031    -0.15190
C480        C  0.98680496  0.35222007  0.79603849     0.37140
N481        N  0.96249632  0.36209954  0.76181666    -0.89440
H482        H  0.97028250  0.40522277  0.82882723     0.18250
H483        H  0.04694044  0.27832140  0.83236752     0.18240
N484        N  0.05566694  0.32224406  0.89955256    -0.88470
H485        H  0.94915203  0.39023498  0.76553599     0.35620
H486        H  0.93914030  0.34117775  0.76023638     0.40720
H487        H  0.07744605  0.34463531  0.90292081     0.40340
H488        H  0.07097583  0.29530866  0.89481754     0.35220
C489        C  0.34787258  0.02155406  0.79636550    -0.26510
C490        C  0.31558760  0.99471429  0.80020729    -0.14580
C491        C  0.31502805  0.96931486  0.83478651     0.36050
C492        C  0.34224386  0.97496851  0.86627249    -0.25950
C493        C  0.37331150  0.00283362  0.86357153    -0.15190
C494        C  0.37761648  0.02471749  0.82691530     0.37140
N495        N  0.41144613  0.05082544  0.82105907    -0.89440
H496        H  0.34948508  0.04063998  0.77009158     0.18250
H497        H  0.33971830  0.95617817  0.89274055     0.18240
N498        N  0.28600592  0.93769684  0.83860886    -0.88470
H499        H  0.40858892  0.06666053  0.79411996     0.35620
H500        H  0.43656800  0.03257027  0.81754025     0.40720
H501        H  0.26987494  0.94263457  0.86495079     0.40340
H502        H  0.30120748  0.91047980  0.84183732     0.35220
C503        C  0.97875659  0.64876234  0.79416785    -0.26510
C504        C  0.00601087  0.68080289  0.79098036    -0.14580
C505        C  0.03468075  0.68586660  0.82189790     0.36050
C506        C  0.03391750  0.66061946  0.85616275    -0.25950
C507        C  0.00500003  0.63017988  0.86030020    -0.15190
C508        C  0.97763125  0.62381685  0.82840129     0.37140
N509        N  0.94734499  0.59318036  0.83178146    -0.89440
H510        H  0.95553774  0.64578358  0.77164478     0.18250
H511        H  0.05564387  0.66501351  0.87988765     0.18240
N512        N  0.06242053  0.71887412  0.81966964    -0.88470
H513        H  0.92948669  0.59233433  0.80604457     0.35620
H514        H  0.92859839  0.60111167  0.85548766     0.40720
H515        H  0.08075477  0.71396417  0.79485711     0.40340
H516        H  0.08108618  0.71919176  0.84483547     0.35220
C517        C  0.35119975  0.02508907  0.20603583    -0.26510
C518        C  0.32304067  0.99401567  0.21084330    -0.14580
C519        C  0.32241629  0.96287690  0.18145360     0.36050
C520        C  0.34668315  0.96555151  0.14701432    -0.25950
C521        C  0.37301315  0.99787575  0.14118140    -0.15190
C522        C  0.37639689  0.02706555  0.17201633     0.37140
N523        N  0.40459350  0.05955162  0.16797905    -0.89440
H524        H  0.35119755  0.04975891  0.22719702     0.18250
H525        H  0.34508582  0.94192194  0.12474454     0.18240
N526        N  0.29537202  0.92929845  0.18447265    -0.88470
H527        H  0.40364111  0.07837651  0.19300436     0.35620
H528        H  0.39583885  0.07690059  0.14333888     0.40720
H529        H  0.28000999  0.92947601  0.21166584     0.40340
H530        H  0.27413671  0.93206588  0.16161127     0.35220
C531        C  0.02605473  0.65102784  0.20520567    -0.26510
C532        C  0.99571601  0.67951853  0.21066067    -0.14580
C533        C  0.96552339  0.68231547  0.18074497     0.36050
C534        C  0.96800682  0.65912708  0.14519865    -0.25950
C535        C  0.99997042  0.63271911  0.13874044    -0.15190
C536        C  0.02859204  0.62788345  0.16984584     0.37140
N537        N  0.06116889  0.60026500  0.16475231    -0.89440
H538        H  0.05016774  0.64970744  0.22690782     0.18250
H539        H  0.94498918  0.66176032  0.12246248     0.18240
N540        N  0.93425663  0.71148642  0.18522718    -0.88470
H541        H  0.07959556  0.60001374  0.19009504     0.35620
H542        H  0.07863035  0.61074957  0.14096175     0.40720
H543        H  0.91732115  0.70307599  0.21016468     0.40340
H544        H  0.91498494  0.71083854  0.16052367     0.35220
C545        C  0.65079500  0.03608899  0.15517672    -0.26510
C546        C  0.63066686  0.00065966  0.14452717    -0.14580
C547        C  0.62980885  0.96862716  0.17273470     0.36050
C548        C  0.65276650  0.97101701  0.20836923    -0.25950
C549        C  0.67553817  0.00533262  0.21765617    -0.15190
C550        C  0.67232078  0.03912576  0.19142667     0.37140
N551        N  0.69361213  0.07594055  0.19922072    -0.89440
H552        H  0.64960650  0.06185597  0.13526680     0.18250
H553        H  0.65561449  0.94466575  0.22730116     0.18240
N554        N  0.60697632  0.93290890  0.16430499    -0.88470
H555        H  0.71615033  0.07872378  0.17773754     0.35620
H556        H  0.70747241  0.07519987  0.22729181     0.40720
H557        H  0.57678863  0.94050147  0.16630142     0.40340
H558        H  0.61177773  0.91116527  0.18645317     0.35220
C559        C  0.83217312  0.99690956  0.62613641    -0.26510
C560        C  0.87045513  0.01087000  0.63811822    -0.14580
C561        C  0.87369641  0.02860365  0.67645432     0.36050
C562        C  0.83976578  0.02993321  0.70199920    -0.25950
C563        C  0.80236425  0.01312509  0.69097158    -0.15190
C564        C  0.79862239  0.99765647  0.65167281     0.37140
N565        N  0.76195634  0.97995419  0.63743555    -0.89440
H566        H  0.82830106  0.98369204  0.59673086     0.18250
H567        H  0.84345421  0.04092440  0.73232544     0.18240
N568        N  0.91127075  0.04496427  0.68966760    -0.88470
H569        H  0.75279380  0.99640664  0.61233958     0.35620
H570        H  0.73910703  0.98284839  0.65844776     0.40720
H571        H  0.93082586  0.02088752  0.69402031     0.40340
H572        H  0.90811209  0.05874964  0.71759556     0.35220
C573        C  0.98477416  0.20621704  0.65043729    -0.26510
C574        C  0.01002824  0.20793281  0.68400471    -0.14580
C575        C  0.03771768  0.17598982  0.68978438     0.36050
C576        C  0.03706601  0.14221703  0.66412900    -0.25950
C577        C  0.00969744  0.13942901  0.63231727    -0.15190
C578        C  0.98389457  0.17244571  0.62499893     0.37140
N579        N  0.95527359  0.17072191  0.59280344    -0.89440
H580        H  0.96258808  0.22959475  0.64647650     0.18250
H581        H  0.05808474  0.11798612  0.66917944     0.18240
N582        N  0.06612209  0.17631071  0.72211193    -0.88470
H583        H  0.93856641  0.19721015  0.59133966     0.35620
H584        H  0.93513469  0.14747557  0.59923803     0.40720
H585        H  0.06493019  0.20326818  0.73803387     0.40340
H586        H  0.05853654  0.15302407  0.74178950     0.35220
C587        C  0.21473904  0.97234050  0.64522944    -0.26510
C588        C  0.22210071  0.00483408  0.67118116    -0.14580
C589        C  0.19521145  0.03801999  0.66897301     0.36050
C590        C  0.15948362  0.03517508  0.64640605    -0.25950
C591        C  0.15015299  0.00069226  0.62406820    -0.15190
C592        C  0.17946053  0.96998212  0.62170011     0.37140
N593        N  0.17224036  0.93514967  0.59723835    -0.89440
H594        H  0.23427621  0.94645420  0.64690036     0.18250
H595        H  0.13874047  0.06014847  0.64654543     0.18240
N596        N  0.20143034  0.07346014  0.69279548    -0.88470
H597        H  0.19489368  0.91393049  0.60131985     0.35620
H598        H  0.17420938  0.94423938  0.56735393     0.40720
H599        H  0.22888126  0.07223573  0.70775604     0.40340
H600        H  0.17907080  0.07424085  0.71459472     0.35220
C601        C  0.97786469  0.82946994  0.62179660    -0.26510
C602        C  0.00522581  0.86058833  0.63076291    -0.14580
C603        C  0.03296437  0.85435119  0.66201159     0.36050
C604        C  0.03075596  0.81860800  0.68522842    -0.25950
C605        C  0.00089435  0.78924200  0.67841882    -0.15190
C606        C  0.97509931  0.79437443  0.64535463     0.37140
N607        N  0.94488191  0.76465198  0.63690820    -0.89440
H608        H  0.95730305  0.83326089  0.59694158     0.18250
H609        H  0.05014366  0.81529747  0.71107020     0.18240
N610        N  0.06276360  0.88440495  0.67046766    -0.88470
H611        H  0.92898192  0.77230516  0.61100490     0.35620
H612        H  0.92420455  0.76487728  0.66031541     0.40720
H613        H  0.08155592  0.88638200  0.64555650     0.40340
H614        H  0.08065423  0.87542810  0.69458257     0.35220
C615        C  0.16291099  0.96108709  0.36452715    -0.26510
C616        C  0.13719240  0.99466520  0.36625955    -0.14580
C617        C  0.14946497  0.03034510  0.34717130     0.36050
C618        C  0.18594242  0.03147667  0.32604256    -0.25950
C619        C  0.20938670  0.99667991  0.32002477    -0.15190
C620        C  0.19814500  0.96131412  0.34099507     0.37140
N621        N  0.22087202  0.92486967  0.33797999    -0.89440
H622        H  0.15510490  0.93409033  0.38103143     0.18250
H623        H  0.19367727  0.05863382  0.30972488     0.18240
N624        N  0.12471731  0.06546892  0.34919314    -0.88470
H625        H  0.23112272  0.91774522  0.36673540     0.35620
H626        H  0.24636798  0.92935102  0.32052549     0.40720
H627        H  0.09807011  0.05891648  0.33406811     0.40340
H628        H  0.13801892  0.08941309  0.33378986     0.35220
C629        C  0.02959903  0.83969970  0.36611582    -0.26510
C630        C  0.99373756  0.86067477  0.37189608    -0.14580
C631        C  0.95800629  0.84292887  0.35741887     0.36050
C632        C  0.95968429  0.80870851  0.33215593    -0.25950
C633        C  0.99619428  0.78985217  0.32332363    -0.15190
C634        C  0.03117024  0.80447077  0.34257553     0.37140
N635        N  0.06877354  0.78457547  0.33627991    -0.89440
H636        H  0.05675978  0.85119773  0.37975173     0.18250
H637        H  0.93273699  0.79820695  0.31737210     0.18240
N638        N  0.92015792  0.85970899  0.36823719    -0.88470
H639        H  0.09129525  0.79810757  0.35340551     0.35620
H640        H  0.07702062  0.78853964  0.30636768     0.40720
H641        H  0.91696642  0.85642489  0.39921966     0.40340
H642        H  0.89678442  0.84339928  0.35510891     0.35220
C643        C  0.82977446  0.03253532  0.37861185    -0.26510
C644        C  0.85948317  0.00255280  0.37635924    -0.14580
C645        C  0.85144696  0.96852094  0.35259415     0.36050
C646        C  0.81547852  0.96559090  0.33104837    -0.25950
C647        C  0.78815760  0.99792279  0.32874716    -0.15190
C648        C  0.79483932  0.03113784  0.35449883     0.37140
N649        N  0.76790175  0.06465670  0.35560341    -0.89440
H650        H  0.83442048  0.05804411  0.39825433     0.18250
H651        H  0.81148133  0.93999692  0.31131404     0.18240
N652        N  0.87950714  0.93637894  0.34968256    -0.88470
H653        H  0.75673188  0.06651967  0.38475785     0.35620
H654        H  0.74320058  0.05958016  0.33709541     0.40720
H655        H  0.88521304  0.92615717  0.37873477     0.40340
H656        H  0.90609007  0.94777142  0.33770602     0.35220
C657        C  0.01789271  0.35013013  0.21070303    -0.26510
C658        C  0.99394987  0.31570793  0.20672932    -0.14580
C659        C  0.97039957  0.31186406  0.17133021     0.36050
C660        C  0.97497698  0.33891468  0.13934562    -0.25950
C661        C  0.00027471  0.37225840  0.14226353    -0.15190
C662        C  0.02022329  0.37918331  0.17951535     0.37140
N663        N  0.04426855  0.41465906  0.18509180    -0.89440
H664        H  0.03624563  0.35342948  0.23728045     0.18250
H665        H  0.95839115  0.33370877  0.11198683     0.18240
N666        N  0.94360702  0.27843803  0.16664426    -0.88470
H667        H  0.05970454  0.41322150  0.21232752     0.35620
H668        H  0.02472830  0.43895676  0.18782259     0.40720
H669        H  0.95234086  0.26218222  0.14135605     0.40340
H670        H  0.91496642  0.28972296  0.16120491     0.35220
C671        C  0.96502415  0.16473735  0.36953812    -0.26510
C672        C  0.00014207  0.14176509  0.37357501    -0.14580
C673        C  0.03638769  0.15872954  0.36015161     0.36050
C674        C  0.03624151  0.19591012  0.33965179    -0.25950
C675        C  0.00026187  0.21569881  0.32974761    -0.15190
C676        C  0.96462715  0.20117851  0.34736549     0.37140
N677        N  0.92792190  0.22270678  0.34129310    -0.89440
H678        H  0.93764459  0.15373505  0.38301794     0.18250
H679        H  0.06378677  0.20648879  0.32612798     0.18240
N680        N  0.07321856  0.13748864  0.36629026    -0.88470
H681        H  0.90453952  0.20863241  0.35667903     0.35620
H682        H  0.92067892  0.22132245  0.31085470     0.40720
H683        H  0.07864231  0.13620229  0.39710797     0.40340
H684        H  0.09713047  0.15338105  0.35371434     0.35220
C685        C  0.87873067  0.83213171  0.03333847    -0.26510
C686        C  0.86602166  0.86716221  0.01390747    -0.14580
C687        C  0.82494424  0.87470385  0.00975163     0.36050
C688        C  0.79762437  0.84689686  0.02450740    -0.25950
C689        C  0.81001569  0.81076590  0.04318715    -0.15190
C690        C  0.85138919  0.80509381  0.04984707     0.37140
N691        N  0.86601238  0.77255122  0.07388389    -0.89440
H692        H  0.91021221  0.82597219  0.03658637     0.18250
H693        H  0.76653717  0.85331219  0.01875167     0.18240
N694        N  0.81059400  0.90977322  0.98921060    -0.88470
H695        H  0.88168055  0.78474089  0.09814704     0.35620
H696        H  0.88630060  0.75605908  0.05672859     0.40720
H697        H  0.79232521  0.92581547  0.00885060     0.40340
H698        H  0.79304659  0.90043934  0.96495574     0.35220
C699        C  0.84253285  0.19927380  0.98423610    -0.26510
C700        C  0.81337313  0.19228144  0.95454174    -0.14580
C701        C  0.81084911  0.15422920  0.93596997     0.36050
C702        C  0.83621824  0.12369613  0.94897615    -0.25950
C703        C  0.86410871  0.13066331  0.97964193    -0.15190
C704        C  0.86785159  0.16894173  0.99702501     0.37140
N705        N  0.89600795  0.17641629  0.02886717    -0.89440
H706        H  0.84403697  0.22789384  0.99964173     0.18250
H707        H  0.83466471  0.09457302  0.93447080     0.18240
N708        N  0.78305306  0.14566299  0.90418462    -0.88470
H709        H  0.88814533  0.20231791  0.04469286     0.35620
H710        H  0.92359182  0.18283207  0.01561883     0.40720
H711        H  0.76726182  0.17134312  0.89565413     0.40340
H712        H  0.76232744  0.12466370  0.91492287     0.35220
C713        C  0.15349588  0.81127704  0.03061394    -0.26510
C714        C  0.19129374  0.82135687  0.01557246    -0.14580
C715        C  0.19823292  0.85921090  0.99811487     0.36050
C716        C  0.16654887  0.88542277  0.99380833    -0.25950
C717        C  0.12791448  0.87402171  0.00549481    -0.15190
C718        C  0.12115044  0.83665761  0.02453774     0.37140
N719        N  0.08189241  0.82441747  0.03739420    -0.89440
H720        H  0.14873372  0.78227165  0.04477877     0.18250
H721        H  0.17208684  0.91426105  0.97960870     0.18240
N722        N  0.23667172  0.87043572  0.98275170    -0.88470
H723        H  0.08333692  0.79790483  0.05424320     0.35620
H724        H  0.06546481  0.81709923  0.01172031     0.40720
H725        H  0.24593158  0.89666916  0.99736503     0.40340
H726        H  0.23364837  0.87695744  0.95224577     0.35220
C727        C  0.17811566  0.16303801  0.94479171    -0.26510
C728        C  0.18057710  0.19193131  0.97497096    -0.14580
C729        C  0.15382240  0.19167705  0.00765566     0.36050
C730        C  0.12377695  0.16291709  0.00861298    -0.25950
C731        C  0.12172424  0.13373715  0.97881368    -0.15190
C732        C  0.14871368  0.13334368  0.94659906     0.37140
N733        N  0.14625994  0.10263357  0.91641108    -0.89440
H734        H  0.19964241  0.16322816  0.92058120     0.18250
H735        H  0.10309970  0.16197045  0.03358710     0.18240
N736        N  0.15835896  0.21956434  0.04034308    -0.88470
H737        H  0.16857758  0.10673404  0.89490058     0.35620
H738        H  0.11890868  0.10598197  0.90159834     0.40720
H739        H  0.18549490  0.21326026  0.05461948     0.40340
H740        H  0.13597999  0.21520085  0.06174634     0.35220
C741        C  0.83930189  0.93133986  0.81062187    -0.26510
C742        C  0.80035297  0.94578458  0.81640523    -0.14580
C743        C  0.79155862  0.96657120  0.85255462     0.36050
C744        C  0.82224991  0.97722683  0.87819666    -0.25950
C745        C  0.86159168  0.96811727  0.86889713    -0.15190
C746        C  0.87041103  0.94372174  0.83563403     0.37140
N747        N  0.91068074  0.93163164  0.82744358    -0.89440
H748        H  0.84611168  0.91334833  0.78451186     0.18250
H749        H  0.81521385  0.99473262  0.90464944     0.18240
N750        N  0.75219263  0.97945614  0.86286016    -0.88470
H751        H  0.91202425  0.91470007  0.80113048     0.35620
H752        H  0.91885489  0.91242774  0.85076742     0.40720
H753        H  0.75317156  0.01055135  0.86738137     0.40340
H754        H  0.74446781  0.96603782  0.89013034     0.35220
C755        C  0.93707229  0.14752280  0.86233045    -0.26510
C756        C  0.97597364  0.13234834  0.86572237    -0.14580
C757        C  0.00723207  0.14704244  0.84225158     0.36050
C758        C  0.99841747  0.17552453  0.81330816    -0.25950
C759        C  0.95912439  0.18957909  0.80817803    -0.15190
C760        C  0.92832518  0.17670983  0.83350112     0.37140
N761        N  0.88904057  0.19370404  0.83022063    -0.89440
H762        H  0.91376275  0.13647200  0.88205994     0.18250
H763        H  0.02237008  0.18775602  0.79522959     0.18240
N764        N  0.04755762  0.13346853  0.84843605    -0.88470
H765        H  0.87006046  0.18118020  0.85178058     0.35620
H766        H  0.87748106  0.18559349  0.80225012     0.40720
H767        H  0.05646197  0.14270569  0.87702909     0.40340
H768        H  0.06699638  0.14743332  0.82819919     0.35220
C769        C  0.13840737  0.95834843  0.85783166    -0.26510
C770        C  0.11683655  0.99424699  0.85860035    -0.14580
C771        C  0.12137267  0.02377166  0.82896864     0.36050
C772        C  0.14943082  0.01739744  0.79925901    -0.25950
C773        C  0.17229818  0.98232458  0.79954305    -0.15190
C774        C  0.16609752  0.95169920  0.82791978     0.37140
N775        N  0.18738350  0.91415875  0.82728470    -0.89440
H776        H  0.13365000  0.93547325  0.88055971     0.18250
H777        H  0.15536154  0.04076777  0.77735272     0.18240
N778        N  0.09915492  0.06064764  0.83044145    -0.88470
H779        H  0.20482339  0.91251396  0.85323916     0.35620
H780        H  0.20668318  0.91231590  0.80282533     0.40720
H781        H  0.06918592  0.05359240  0.82488219     0.40340
H782        H  0.10804806  0.08001297  0.80737640     0.35220
C783        C  0.94882834  0.80624941  0.84600337    -0.26510
C784        C  0.95704888  0.81401143  0.80545007    -0.14580
C785        C  0.97661220  0.85077343  0.79529253     0.36050
C786        C  0.98943771  0.87648873  0.82541934    -0.25950
C787        C  0.98381297  0.86675345  0.86563915    -0.15190
C788        C  0.96434137  0.83061756  0.87606080     0.37140
N789        N  0.96030672  0.81819981  0.91701176    -0.89440
H790        H  0.93233546  0.77966174  0.85493288     0.18250
H791        H  0.00379774  0.90456314  0.81703450     0.18240
N792        N  0.98461555  0.86246071  0.75481814    -0.88470
H793        H  0.97439926  0.79035308  0.92033746     0.35620
H794        H  0.92991939  0.81437436  0.92326769     0.40720
H795        H  0.01534494  0.86756157  0.75205341     0.40340
H796        H  0.97000495  0.88966002  0.74920165     0.35220
C797        C  0.19662186  0.99860099  0.14235154    -0.26510
C798        C  0.18708746  0.01651009  0.17905714    -0.14580
C799        C  0.14904614  0.03316953  0.18532928     0.36050
C800        C  0.12028989  0.02918471  0.15562857    -0.25950
C801        C  0.12960019  0.01040867  0.11928287    -0.15190
C802        C  0.16827760  0.99577435  0.11219442     0.37140
N803        N  0.17842304  0.97650092  0.07523628    -0.89440
H804        H  0.22562141  0.98506621  0.13751065     0.18250
H805        H  0.09060884  0.04090262  0.16105227     0.18240
N806        N  0.13954710  0.05391073  0.22169912    -0.88470
H807        H  0.18793597  0.94724549  0.08161849     0.35620
H808        H  0.20241037  0.99217252  0.06251724     0.40720
H809        H  0.11519386  0.03935783  0.23503197     0.40340
H810        H  0.13068380  0.08313029  0.21430297     0.35220
C811        C  0.03855991  0.87961413  0.15698285    -0.26510
C812        C  0.01296884  0.87073823  0.12486935    -0.14580
C813        C  0.99461251  0.83286997  0.12157652     0.36050
C814        C  0.00176192  0.80447474  0.15097158    -0.25950
C815        C  0.02660654  0.81338875  0.18367368    -0.15190
C816        C  0.04571811  0.85098594  0.18665376     0.37140
N817        N  0.07149443  0.85999872  0.21999392    -0.89440
H818        H  0.05296756  0.90881574  0.15882082     0.18250
H819        H  0.98575678  0.77610267  0.14956618     0.18240
N820        N  0.96694795  0.82430400  0.08975806    -0.88470
H821        H  0.08285683  0.88924801  0.21766541     0.35620
H822        H  0.09590551  0.84051484  0.21856780     0.40720
H823        H  0.94210529  0.84266682  0.09449434     0.40340
H824        H  0.95680114  0.79455472  0.09129741     0.35220
C825        C  0.87623844  0.97610868  0.16014127    -0.26510
C826        C  0.86963772  0.00145747  0.12736244    -0.14580
C827        C  0.83503749  0.02512462  0.12417238     0.36050
C828        C  0.80729671  0.02307983  0.15474083    -0.25950
C829        C  0.81379901  0.99764575  0.18750511    -0.15190
C830        C  0.84809835  0.97354785  0.19038180     0.37140
N831        N  0.85382321  0.94654211  0.22362455    -0.89440
H832        H  0.90284516  0.95760230  0.16156987     0.18250
H833        H  0.78078794  0.04171405  0.15338689     0.18240
N834        N  0.82859152  0.05129484  0.09036791    -0.88470
H835        H  0.88096177  0.93125848  0.22102715     0.35620
H836        H  0.83120279  0.92479467  0.22236729     0.40720
H837        H  0.85078948  0.07351310  0.09099806     0.40340
H838        H  0.80117608  0.06611499  0.09276428     0.35220
C839        C  0.03995700  0.15767475  0.17927743    -0.26510
C840        C  0.00487636  0.17594795  0.19206203    -0.14580
C841        C  0.96799718  0.16952695  0.17236791     0.36050
C842        C  0.96766258  0.14595469  0.13836915    -0.25950
C843        C  0.00293693  0.12855624  0.12493030    -0.15190
C844        C  0.03952309  0.13376256  0.14545964     0.37140
N845        N  0.07644905  0.11579383  0.13274053    -0.89440
H846        H  0.06797945  0.16337533  0.19472602     0.18250
H847        H  0.93962703  0.14040918  0.12285917     0.18240
N848        N  0.93089789  0.18700416  0.18536468    -0.88470
H849        H  0.09647473  0.13907854  0.12612298     0.35620
H850        H  0.07298844  0.09941848  0.10635485     0.40720
H851        H  0.93431384  0.20372329  0.21155205     0.40340
H852        H  0.91139439  0.16340537  0.19243701     0.35220
loop_ 
_geom_bond_atom_site_label_1 
_geom_bond_atom_site_label_2 
_geom_bond_distance 
_geom_bond_site_symmetry_2 
_ccdc_geom_bond_type 
O1          Zr37   2.406   1_554  S
O1           C12   1.285       .  A
O2          Zr36   2.391   1_454  S
O2           C13   1.284       .  A
O3           Zr9   2.385       .  S
O3           C14   1.283       .  A
O4           Zr9   2.388   1_455  S
O4           C15   1.284       .  A
O5          Zr39   2.402   1_554  S
O5           C15   1.285       .  A
O6          Zr38   2.366   1_544  S
O6           C14   1.280       .  A
O7           Zr9   2.389   1_465  S
O7           C13   1.283       .  A
O8           Zr9   2.362   1_455  S
O8           C12   1.278   1_455  A
Zr9          O10   2.304   1_645  S
Zr9          O11   2.322       .  S
Zr9          O19   2.317   1_655  S
Zr9          O17   2.306   1_545  S
O10         Zr36   2.311   1_454  S
O10         Zr39   2.309   1_564  S
O11         Zr37   2.313   1_554  S
O11         Zr38   2.327   1_544  S
C12         C843   1.417   1_655  S
C13         C812   1.443       .  S
C14         C826   1.427       .  S
C15         C801   1.447       .  S
H16          O17   0.965       .  S
O17         Zr36   2.313   1_554  S
O17         Zr38   2.331   1_554  S
H18          O19   0.964       .  S
O19         Zr37   2.305   1_454  S
O19         Zr39   2.305   1_554  S
O20         Zr36   2.377       .  S
O20          C43   1.281       .  A
O21         Zr37   2.377       .  S
O21          C44   1.281       .  A
O22         Zr38   2.394   1_554  S
O22          C45   1.285       .  A
O23         Zr39   2.381   1_565  S
O23          C46   1.283       .  A
O24         Zr39   2.387       .  S
O24          C47   1.282       .  A
O25         Zr38   2.419   1_545  S
O25          C48   1.289       .  A
O26         Zr40   2.385       .  S
O26          C49   1.281       .  A
O27         Zr40   2.378   1_445  S
O27          C50   1.281   1_545  A
O28         Zr38   2.406       .  S
O28          C49   1.288       .  A
O29         Zr39   2.376   1_565  S
O29          C50   1.282       .  A
O30         Zr36   2.412       .  S
O30          C45   1.289   1_556  A
O31         Zr37   2.378       .  S
O31          C48   1.282       .  A
O32         Zr37   2.399   1_455  S
O32          C47   1.284       .  A
O33         Zr36   2.394   1_455  S
O33          C46   1.283       .  A
O34         Zr40   2.409       .  S
O34          C43   1.289       .  A
O35         Zr40   2.419   1_545  S
O35          C44   1.288       .  A
Zr36         O42   2.315       .  S
Zr36         O54   2.318   1_655  S
Zr37         O41   2.317   1_655  S
Zr37         O52   2.331       .  S
Zr38         O42   2.306       .  S
Zr38         O52   2.301   1_565  S
Zr39         O41   2.317       .  S
Zr39         O54   2.322   1_545  S
Zr40         O41   2.313   1_665  S
Zr40         O42   2.319       .  S
Zr40         O54   2.320   1_655  S
Zr40         O52   2.312   1_565  S
C43         C787   1.456       .  S
C44         C756   1.427       .  S
C45         C686   1.462       .  S
C46         C717   1.449   1_556  S
C47         C731   1.432       .  S
C48         C703   1.448       .  S
C49         C745   1.448       .  S
C50         C770   1.421       .  S
H51          O52   0.979       .  S
H53          O54   0.947       .  S
C55         C675   1.490   1_655  S
C55          C56   1.390   1_655  A
C55          C60   1.439       .  A
C56          C57   1.367       .  A
C56          H61   1.087   1_455  S
C57         C840   1.426       .  S
C57          C58   1.373       .  A
C58          C59   1.390       .  A
C58          H62   1.087       .  S
C59         C658   1.505   1_455  S
C59          C60   1.439   1_455  A
C60          H63   1.082       .  S
O64         Zr76   2.399       .  S
O64          C66   1.279       .  A
O65        Zr102   2.518       .  S
O65          C66   1.307   1_655  A
C66         C672   1.491       .  S
O67         Zr79   2.408       .  S
O67          C69   1.281       .  A
O68        Zr103   2.524       .  S
O68          C69   1.308   1_545  A
C69         C591   1.503   1_565  S
O70         Zr79   2.407       .  S
O70          C72   1.280       .  A
O71        Zr102   2.520   1_465  S
O71          C72   1.307       .  A
C72         C616   1.497       .  S
O73         Zr76   2.412       .  S
O73          C75   1.283       .  A
O74        Zr103   2.497       .  S
O74          C75   1.302       .  A
C75         C577   1.498       .  S
Zr76         O82   2.373       .  S
Zr76         O83   2.363       .  S
Zr76        O106   2.359   1_455  S
Zr76        O108   2.367   1_455  S
Zr76         O77   2.434       .  S
Zr76         O78   2.437   1_455  S
O77         H120   0.990       .  S
O78         H119   0.990       .  S
O78         H123   0.990       .  S
Zr79         O83   2.369   1_565  S
Zr79         O82   2.369   1_565  S
Zr79        O107   2.366       .  S
Zr79        O109   2.368       .  S
Zr79         O80   2.436   1_565  S
Zr79         O81   2.435       .  S
O80         H121   0.990       .  S
O80         H124   0.990       .  S
O81         H114   0.990       .  S
O82        Zr102   2.399   1_455  S
O83        Zr103   2.399       .  S
O83         H110   0.966       .  S
O84         Zr96   2.418       .  S
O84          C86   1.285       .  A
O85        Zr103   2.522   1_655  S
O85          C86   1.307       .  A
C86         C560   1.519       .  S
O87         Zr99   2.415   1_655  S
O87          C89   1.282       .  A
O88        Zr102   2.519   1_565  S
O88          C89   1.307       .  A
C89         C630   1.499       .  S
O90         Zr99   2.402       .  S
O90          C92   1.281       .  A
O91        Zr103   2.508   1_565  S
O91          C92   1.304       .  A
C92         C602   1.498       .  S
O93         Zr96   2.426       .  S
O93          C95   1.284       .  A
O94        Zr102   2.503       .  S
O94          C95   1.304       .  A
C95         C644   1.500       .  S
Zr96        O104   2.373   1_545  S
Zr96        O105   2.368   1_545  S
Zr96        O108   2.364       .  S
Zr96        O106   2.369       .  S
Zr96         O97   2.436   1_545  S
Zr96         O98   2.434       .  S
O97         H117   0.990       .  S
O97         H122   0.990       .  S
O98         H118   0.990       .  S
Zr99        O105   2.365   1_455  S
Zr99        O104   2.370   1_455  S
Zr99        O109   2.370       .  S
Zr99        O107   2.362       .  S
Zr99        O100   2.435   1_455  S
Zr99        O101   2.435       .  S
O100        H116   0.990       .  S
O101        H115   0.990       .  S
O101        H125   0.990       .  S
Zr102       O105   2.399   1_545  S
Zr102       O107   2.397   1_645  S
Zr102       O108   2.403       .  S
Zr103       O104   2.410   1_445  S
Zr103       O106   2.400   1_455  S
Zr103       O109   2.401   1_545  S
O104        H112   0.965       .  S
O107        H111   0.966       .  S
O108        H113   0.965       .  S
C126        C647   1.501   1_545  S
C126        C127   1.438       .  A
C126        C131   1.391       .  A
C127        C128   1.437   1_545  A
C127        H132   1.082       .  S
C128        C549   1.494   1_565  S
C128        C129   1.386       .  A
C129        C130   1.374       .  A
C129        H133   1.087       .  S
C130        C829   1.437       .  S
C130        C131   1.376   1_565  A
C131        H134   1.086       .  S
C135        C532   1.495   1_455  S
C135        C136   1.389       .  A
C135        C140   1.434   1_455  A
C136        C137   1.382       .  A
C136        H141   1.087       .  S
C137        C815   1.453       .  S
C137        C138   1.383       .  A
C138        C139   1.391       .  A
C138        H142   1.085       .  S
C139        C633   1.494   1_455  S
C139        C140   1.434   1_455  A
C140        H143   1.082       .  S
C144        C518   1.498   1_545  S
C144        C145   1.437   1_545  A
C144        C149   1.390       .  A
C145        C146   1.436       .  A
C145        H150   1.082       .  S
C146        C619   1.502       .  S
C146        C147   1.389       .  A
C147        C148   1.383   1_565  A
C147        H151   1.085       .  S
C148        C798   1.452       .  S
C148        C149   1.382       .  A
C149        H152   1.086       .  S
C153        C605   1.492   1_655  S
C153        C154   1.398       .  A
C153        C158   1.428   1_655  A
C154        C155   1.386       .  A
C154        H159   1.084       .  S
C155        C784   1.487       .  S
C155        C156   1.395       .  A
C156        C157   1.392       .  A
C156        H160   1.082       .  S
C157        C504   1.492   1_655  S
C157        C158   1.426   1_655  A
C158        H161   1.082       .  S
C162        C588   1.496   1_565  S
C162        C163   1.386       .  A
C162        C167   1.447   1_565  A
C163        C164   1.363       .  A
C163        H168   1.087       .  S
C164        C773   1.425       .  S
C164        C165   1.376       .  A
C165        C166   1.391       .  A
C165        H169   1.086   1_565  S
C166        C490   1.519       .  S
C166        C167   1.445   1_565  A
C167        H170   1.082       .  S
C171        C574   1.494   1_655  S
C171        C172   1.396       .  A
C171        C176   1.429   1_655  A
C172        C173   1.386       .  A
C172        H177   1.087       .  S
C173        C759   1.450       .  S
C173        C174   1.383       .  A
C174        C175   1.395       .  A
C174        H178   1.087       .  S
C175        C479   1.490   1_655  S
C175        C176   1.429   1_655  A
C176        H179   1.082       .  S
C180        C563   1.507   1_565  S
C180        C181   1.394       .  A
C180        C185   1.434   1_565  A
C181        C182   1.396       .  A
C181        H186   1.083       .  S
C182        C742   1.482       .  S
C182        C183   1.385       .  A
C183        C184   1.398       .  A
C183        H187   1.085       .  S
C184        C462   1.504   1_565  S
C184        C185   1.435   1_565  A
C185        H188   1.082       .  S
O189       Zr201   2.418       .  S
O189        C191   1.283       .  A
O190       Zr227   2.491       .  S
O190        C191   1.301       .  A
C191        C409   1.501       .  S
O192       Zr204   2.413       .  S
O192        C194   1.282       .  A
O193       Zr228   2.513   1_565  S
O193        C194   1.305       .  A
C194        C521   1.501       .  S
O195       Zr204   2.393       .  S
O195        C197   1.278   1_565  A
O196       Zr227   2.525       .  S
O196        C197   1.308       .  A
C197        C546   1.496       .  S
O198       Zr201   2.413       .  S
O198        C200   1.282       .  A
O199       Zr228   2.515       .  S
O199        C200   1.306       .  A
C200        C448   1.508       .  S
Zr201       O207   2.366       .  S
Zr201       O208   2.369       .  S
Zr201       O231   2.366   1_554  S
Zr201       O233   2.364   1_554  S
Zr201       O202   2.434       .  S
Zr201       O203   2.437   1_554  S
O202        H245   0.990       .  S
O203        H244   0.990       .  S
O203        H248   0.989       .  S
Zr204       O208   2.359   1_565  S
Zr204       O207   2.367   1_565  S
Zr204       O232   2.376       .  S
Zr204       O234   2.362       .  S
Zr204       O205   2.436   1_565  S
Zr204       O206   2.434       .  S
O205        H246   0.990       .  S
O205        H249   0.990       .  S
O206        H239   0.989       .  S
O207       Zr227   2.400       .  S
O208       Zr228   2.398       .  S
O208        H235   0.965       .  S
O209       Zr221   2.420       .  S
O209        C211   1.282       .  A
O210       Zr228   2.505   1_556  S
O210        C211   1.306       .  A
C211        C493   1.505       .  S
O212       Zr224   2.417   1_556  S
O212        C214   1.284       .  A
O213       Zr227   2.506   1_566  S
O213        C214   1.304       .  A
C214        C437   1.511       .  S
O215       Zr224   2.414       .  S
O215        C217   1.282       .  A
O216       Zr228   2.512   1_565  S
O216        C217   1.305       .  A
C217        C420   1.498       .  S
O218       Zr221   2.415       .  S
O218        C220   1.284       .  A
O219       Zr227   2.523   1_556  S
O219        C220   1.307       .  A
C220        C465   1.511       .  S
Zr221       O229   2.371   1_545  S
Zr221       O230   2.368   1_545  S
Zr221       O233   2.371       .  S
Zr221       O231   2.370       .  S
Zr221       O222   2.437   1_545  S
Zr221       O223   2.434       .  S
O222        H242   0.990       .  S
O222        H247   0.990       .  S
O223        H243   0.990       .  S
Zr224       O230   2.365   1_554  S
Zr224       O229   2.370   1_554  S
Zr224       O234   2.370       .  S
Zr224       O232   2.364       .  S
Zr224       O225   2.434   1_554  S
Zr224       O226   2.434       .  S
O225        H241   0.990       .  S
O226        H240   0.990       .  S
O226        H250   0.990       .  S
Zr227       O230   2.399   1_544  S
Zr227       O232   2.404   1_545  S
Zr227       O233   2.405   1_554  S
Zr228       O229   2.405   1_544  S
Zr228       O231   2.402   1_554  S
Zr228       O234   2.396   1_545  S
O229        H237   0.965       .  S
O232        H236   0.965       .  S
O233        H238   0.964       .  S
O251       Zr263   2.414       .  S
O251        C253   1.282       .  A
O252       Zr289   2.507       .  S
O252        C253   1.304       .  A
C253        C392   1.496       .  S
O254       Zr266   2.399       .  S
O254        C256   1.280       .  A
O255       Zr290   2.521   1_654  S
O255        C256   1.307   1_655  A
C256        C535   1.500   1_455  S
O257       Zr266   2.411       .  S
O257        C259   1.281       .  A
O258       Zr289   2.502       .  S
O258        C259   1.304       .  A
C259        C661   1.503       .  S
O260       Zr263   2.408   1_556  S
O260        C262   1.281       .  A
O261       Zr290   2.502       .  S
O261        C262   1.304       .  A
C262        C378   1.493       .  S
Zr263       O269   2.369       .  S
Zr263       O270   2.370       .  S
Zr263       O293   2.365   1_554  S
Zr263       O295   2.364   1_554  S
Zr263       O264   2.434       .  S
Zr263       O265   2.437   1_554  S
O264        H307   0.990       .  S
O265        H306   0.989       .  S
O265        H310   0.990       .  S
Zr266       O270   2.370       .  S
Zr266       O269   2.365       .  S
Zr266       O294   2.363   1_455  S
Zr266       O296   2.373   1_455  S
Zr266       O267   2.436       .  S
Zr266       O268   2.436   1_455  S
O267        H308   0.990       .  S
O267        H311   0.990       .  S
O268        H301   0.990       .  S
O269       Zr289   2.394       .  S
O270       Zr290   2.402   1_554  S
O270        H297   0.965       .  S
O271       Zr283   2.420       .  S
O271        C273   1.284       .  A
O272       Zr290   2.499       .  S
O272        C273   1.302       .  A
C273        C507   1.498       .  S
O274       Zr286   2.415       .  S
O274        C276   1.284       .  A
O275       Zr289   2.503   1_655  S
O275        C276   1.304       .  A
C276        C364   1.499       .  S
O277       Zr286   2.426   1_556  S
O277        C279   1.286       .  A
O278       Zr290   2.503   1_655  S
O278        C279   1.304       .  A
C279        C353   1.509       .  S
O280       Zr283   2.409       .  S
O280        C282   1.283       .  A
O281       Zr289   2.505   1_556  S
O281        C282   1.304       .  A
C282        C476   1.502       .  S
Zr283       O291   2.362   1_455  S
Zr283       O292   2.369   1_455  S
Zr283       O295   2.367       .  S
Zr283       O293   2.365       .  S
Zr283       O284   2.437   1_455  S
Zr283       O285   2.434       .  S
O284        H304   0.990       .  S
O284        H309   0.990       .  S
O285        H305   0.990       .  S
Zr286       O292   2.373   1_554  S
Zr286       O291   2.365   1_554  S
Zr286       O296   2.368       .  S
Zr286       O294   2.368       .  S
Zr286       O287   2.435   1_554  S
Zr286       O288   2.435       .  S
O287        H303   0.990       .  S
O288        H302   0.990       .  S
O288        H312   0.990       .  S
Zr289       O292   2.404   1_454  S
Zr289       O294   2.399   1_455  S
Zr289       O295   2.402   1_554  S
Zr290       O291   2.402   1_455  S
Zr290       O293   2.398       .  S
Zr290       O296   2.399   1_456  S
O291        H299   0.965       .  S
O294        H298   0.965       .  S
O295        H300   0.964       .  S
C313        C451   1.499       .  S
C313        C314   1.436       .  A
C313        C318   1.393   1_554  A
C314        C315   1.436   1_554  A
C314        H319   1.082       .  S
C315        C395   1.497   1_556  S
C315        C316   1.391       .  A
C316        C317   1.376       .  A
C316        H320   1.087       .  S
C317        C728   1.444       .  S
C317        C318   1.379       .  A
C318        H321   1.086       .  S
C322        C423   1.492       .  S
C322        C323   1.390       .  A
C322        C327   1.435   1_554  A
C323        C324   1.380       .  A
C323        H328   1.085       .  S
C324        C714   1.451       .  S
C324        C325   1.384   1_554  A
C325        C326   1.388       .  A
C325        H329   1.086       .  S
C326        C381   1.503   1_556  S
C326        C327   1.434       .  A
C327        H330   1.082       .  S
C331        C367   1.493       .  S
C331        C332   1.398       .  A
C331        C336   1.427   1_556  A
C332        C333   1.389       .  A
C332        H337   1.086       .  S
C333        C700   1.465       .  S
C333        C334   1.387       .  A
C334        C335   1.394       .  A
C334        H338   1.085       .  S
C335        C406   1.489   1_556  S
C335        C336   1.425   1_556  A
C336        H339   1.082       .  S
C340        C350   1.496       .  S
C340        C341   1.394   1_556  A
C340        C345   1.428       .  A
C341        C342   1.393       .  A
C341        H346   1.077       .  S
C342        C689   1.494       .  S
C342        C343   1.395       .  A
C343        C344   1.400       .  A
C343        H347   1.085       .  S
C344        C434   1.498   1_554  S
C344        C345   1.430   1_554  A
C345        H348   1.082       .  S
C349        C350   1.413       .  A
C349        C354   1.419       .  A
C349        H356   1.084       .  S
C350        C351   1.411   1_556  A
C351        C352   1.413       .  A
C351        N358   1.439       .  S
C352        C353   1.414   1_554  A
C352        H357   1.083       .  S
C353        C354   1.413       .  A
C354        N355   1.437       .  S
N355        H359   1.046       .  S
N355        H360   1.046       .  S
N358        H361   1.045       .  S
N358        H362   1.046       .  S
C363        C364   1.408   1_556  A
C363        C368   1.405       .  A
C363        H370   1.084       .  S
C364        C365   1.420       .  A
C365        C366   1.414       .  A
C365        N372   1.436       .  S
C366        C367   1.410   1_554  A
C366        H371   1.084       .  S
C367        C368   1.416       .  A
C368        N369   1.439       .  S
N369        H373   1.046       .  S
N369        H374   1.044       .  S
N372        H375   1.042       .  S
N372        H376   1.046       .  S
C377        C378   1.413       .  A
C377        C382   1.416       .  A
C377        H384   1.084       .  S
C378        C379   1.405   1_556  A
C379        C380   1.409       .  A
C379        N386   1.438       .  S
C380        C381   1.418       .  A
C380        H385   1.085       .  S
C381        C382   1.416   1_554  A
C382        N383   1.436       .  S
N383        H387   1.046       .  S
N383        H388   1.044       .  S
N386        H389   1.046       .  S
N386        H390   1.046       .  S
C391        C392   1.406       .  A
C391        C396   1.416       .  A
C391        H398   1.084       .  S
C392        C393   1.421   1_554  A
C393        C394   1.409       .  A
C393        N400   1.440       .  S
C394        C395   1.409   1_556  A
C394        H399   1.084       .  S
C395        C396   1.422       .  A
C396        N397   1.437       .  S
N397        H401   1.046       .  S
N397        H402   1.044       .  S
N400        H403   1.043       .  S
N400        H404   1.046       .  S
C405        C406   1.399   1_556  A
C405        C410   1.409       .  A
C405        H412   1.084       .  S
C406        C407   1.419       .  A
C407        C408   1.416       .  A
C407        N414   1.439       .  S
C408        C409   1.404       .  A
C408        H413   1.084       .  S
C409        C410   1.423   1_554  A
C410        N411   1.438       .  S
N411        H415   1.046       .  S
N411        H416   1.045       .  S
N414        H417   1.045       .  S
N414        H418   1.046       .  S
C419        C420   1.402   1_556  A
C419        C424   1.416       .  A
C419        H426   1.084       .  S
C420        C421   1.419       .  A
C421        C422   1.415       .  A
C421        N428   1.437       .  S
C422        C423   1.403       .  A
C422        H427   1.084       .  S
C423        C424   1.423   1_554  A
C424        N425   1.440       .  S
N425        H429   1.046       .  S
N425        H430   1.044       .  S
N428        H431   1.044       .  S
N428        H432   1.046       .  S
C433        C434   1.414       .  A
C433        C438   1.421       .  A
C433        H440   1.084       .  S
C434        C435   1.412   1_556  A
C435        C436   1.408       .  A
C435        N442   1.438       .  S
C436        C437   1.415   1_554  A
C436        H441   1.084       .  S
C437        C438   1.414       .  A
C438        N439   1.437       .  S
N439        H443   1.046       .  S
N439        H444   1.045       .  S
N442        H445   1.044       .  S
N442        H446   1.046       .  S
C447        C448   1.403       .  A
C447        C452   1.412       .  A
C447        H454   1.084       .  S
C448        C449   1.426   1_554  A
C449        C450   1.415       .  A
C449        N456   1.438       .  S
C450        C451   1.400   1_556  A
C450        H455   1.084       .  S
C451        C452   1.427       .  A
C452        N453   1.438       .  S
N453        H457   1.046       .  S
N453        H458   1.045       .  S
N456        H459   1.045       .  S
N456        H460   1.046       .  S
C461        C462   1.413       .  A
C461        C466   1.426       .  A
C461        H468   1.083       .  S
C462        C463   1.417   1_545  A
C463        C464   1.408       .  A
C463        N470   1.438       .  S
C464        C465   1.412   1_565  A
C464        H469   1.084       .  S
C465        C466   1.414       .  A
C466        N467   1.436       .  S
N467        H471   1.046       .  S
N467        H472   1.045       .  S
N470        H473   1.045       .  S
N470        H474   1.046       .  S
C475        C476   1.413   1_655  A
C475        C480   1.410       .  A
C475        H482   1.084       .  S
C476        C477   1.411       .  A
C477        C478   1.418       .  A
C477        N484   1.437       .  S
C478        C479   1.413       .  A
C478        H483   1.084       .  S
C479        C480   1.409   1_455  A
C480        N481   1.439       .  S
N481        H485   1.046       .  S
N481        H486   1.045       .  S
N484        H487   1.046       .  S
N484        H488   1.046       .  S
C489        C490   1.404   1_545  A
C489        C494   1.427       .  A
C489        H496   1.083       .  S
C490        C491   1.429       .  A
C491        C492   1.401       .  A
C491        N498   1.434       .  S
C492        C493   1.393   1_565  A
C492        H497   1.085       .  S
C493        C494   1.430       .  A
C494        N495   1.437       .  S
N495        H499   1.046       .  S
N495        H500   1.045       .  S
N498        H501   1.047       .  S
N498        H502   1.045       .  S
C503        C504   1.404   1_655  A
C503        C508   1.411       .  A
C503        H510   1.084       .  S
C504        C505   1.417       .  A
C505        C506   1.418       .  A
C505        N512   1.436       .  S
C506        C507   1.404       .  A
C506        H511   1.083       .  S
C507        C508   1.418   1_455  A
C508        N509   1.438       .  S
N509        H513   1.046       .  S
N509        H514   1.046       .  S
N512        H515   1.045       .  S
N512        H516   1.046       .  S
C517        C518   1.405   1_545  A
C517        C522   1.417       .  A
C517        H524   1.084       .  S
C518        C519   1.428       .  A
C519        C520   1.412       .  A
C519        N526   1.438       .  S
C520        C521   1.401       .  A
C520        H525   1.084       .  S
C521        C522   1.420   1_565  A
C522        N523   1.438       .  S
N523        H527   1.046       .  S
N523        H528   1.046       .  S
N526        H529   1.044       .  S
N526        H530   1.045       .  S
C531        C532   1.403   1_455  A
C531        C536   1.413       .  A
C531        H538   1.084       .  S
C532        C533   1.422       .  A
C533        C534   1.419       .  A
C533        N540   1.437       .  S
C534        C535   1.403       .  A
C534        H539   1.083       .  S
C535        C536   1.420   1_655  A
C536        N537   1.438       .  S
N537        H541   1.046       .  S
N537        H542   1.046       .  S
N540        H543   1.045       .  S
N540        H544   1.046       .  S
C545        C546   1.401       .  A
C545        C550   1.410       .  A
C545        H552   1.084       .  S
C546        C547   1.421   1_545  A
C547        C548   1.417       .  A
C547        N554   1.437       .  S
C548        C549   1.404   1_565  A
C548        H553   1.084       .  S
C549        C550   1.427       .  A
C550        N551   1.438       .  S
N551        H555   1.046       .  S
N551        H556   1.045       .  S
N554        H557   1.044       .  S
N554        H558   1.046       .  S
C559        C560   1.417   1_565  A
C559        C564   1.411       .  A
C559        H566   1.084       .  S
C560        C561   1.414       .  A
C561        C562   1.422       .  A
C561        N568   1.436       .  S
C562        C563   1.416       .  A
C562        H567   1.084       .  S
C563        C564   1.415   1_545  A
C564        N565   1.438       .  S
N565        H569   1.046       .  S
N565        H570   1.044       .  S
N568        H571   1.045       .  S
N568        H572   1.046       .  S
C573        C574   1.403   1_655  A
C573        C578   1.409       .  A
C573        H580   1.084       .  S
C574        C575   1.424       .  A
C575        C576   1.414       .  A
C575        N582   1.436       .  S
C576        C577   1.403       .  A
C576        H581   1.084       .  S
C577        C578   1.419   1_455  A
C578        N579   1.439       .  S
N579        H583   1.046       .  S
N579        H584   1.046       .  S
N582        H585   1.044       .  S
N582        H586   1.045       .  S
C587        C588   1.407   1_565  A
C587        C592   1.418       .  A
C587        H594   1.084       .  S
C588        C589   1.428       .  A
C589        C590   1.414       .  A
C589        N596   1.437       .  S
C590        C591   1.403       .  A
C590        H595   1.084       .  S
C591        C592   1.420   1_545  A
C592        N593   1.438       .  S
N593        H597   1.046       .  S
N593        H598   1.044       .  S
N596        H599   1.045       .  S
N596        H600   1.045       .  S
C601        C602   1.411   1_655  A
C601        C606   1.409       .  A
C601        H608   1.084       .  S
C602        C603   1.410       .  A
C603        C604   1.419       .  A
C603        N610   1.437       .  S
C604        C605   1.413       .  A
C604        H609   1.084       .  S
C605        C606   1.410   1_455  A
C606        N607   1.439       .  S
N607        H611   1.046       .  S
N607        H612   1.045       .  S
N610        H613   1.046       .  S
N610        H614   1.046       .  S
C615        C616   1.413       .  A
C615        C620   1.418       .  A
C615        H622   1.084       .  S
C616        C617   1.406   1_565  A
C617        C618   1.411       .  A
C617        N624   1.436       .  S
C618        C619   1.415   1_545  A
C618        H623   1.084       .  S
C619        C620   1.417       .  A
C620        N621   1.436       .  S
N621        H625   1.046       .  S
N621        H626   1.044       .  S
N624        H627   1.046       .  S
N624        H628   1.046       .  S
C629        C630   1.404   1_455  A
C629        C634   1.413       .  A
C629        H636   1.084       .  S
C630        C631   1.415       .  A
C631        C632   1.419       .  A
C631        N638   1.433       .  S
C632        C633   1.407       .  A
C632        H637   1.084       .  S
C633        C634   1.418   1_655  A
C634        N635   1.439       .  S
N635        H639   1.046       .  S
N635        H640   1.045       .  S
N638        H641   1.046       .  S
N638        H642   1.046       .  S
C643        C644   1.412       .  A
C643        C648   1.418       .  A
C643        H650   1.084       .  S
C644        C645   1.408   1_545  A
C645        C646   1.403       .  A
C645        N652   1.428       .  S
C646        C647   1.415       .  A
C646        H651   1.085       .  S
C647        C648   1.418   1_565  A
C648        N649   1.436       .  S
N649        H653   1.046       .  S
N649        H654   1.044       .  S
N652        H655   1.045       .  S
N652        H656   1.045       .  S
C657        C658   1.401   1_455  A
C657        C662   1.421       .  A
C657        H664   1.083       .  S
C658        C659   1.424       .  A
C659        C660   1.403       .  A
C659        N666   1.434       .  S
C660        C661   1.396   1_655  A
C660        H665   1.081       .  S
C661        C662   1.429       .  A
C662        N663   1.437       .  S
N663        H667   1.046       .  S
N663        H668   1.045       .  S
N666        H669   1.046       .  S
N666        H670   1.045       .  S
C671        C672   1.409   1_655  A
C671        C676   1.419       .  A
C671        H678   1.084       .  S
C672        C673   1.409       .  A
C673        C674   1.412       .  A
C673        N680   1.436       .  S
C674        C675   1.412       .  A
C674        H679   1.084       .  S
C675        C676   1.414   1_455  A
C676        N677   1.437       .  S
N677        H681   1.046       .  S
N677        H682   1.045       .  S
N680        H683   1.045       .  S
N680        H684   1.045       .  S
C685        C686   1.399       .  A
C685        C690   1.394       .  A
C685        H692   1.079       .  S
C686        C687   1.404       .  A
C687        C688   1.388       .  A
C687        N694   1.435   1_554  S
C688        C689   1.415       .  A
C688        H693   1.079       .  S
C689        C690   1.414       .  A
C690        N691   1.433       .  S
N691        H695   1.045       .  S
N691        H696   1.046       .  S
N694        H697   1.046   1_556  S
N694        H698   1.046       .  S
C699        C700   1.408       .  A
C699        C704   1.385       .  A
C699        H706   1.083       .  S
C700        C701   1.412       .  A
C701        C702   1.393       .  A
C701        N708   1.437       .  S
C702        C703   1.402       .  A
C702        H707   1.084       .  S
C703        C704   1.405       .  A
C704        N705   1.440   1_556  S
N705        H709   1.046       .  S
N705        H710   1.045       .  S
N708        H711   1.044       .  S
N708        H712   1.046       .  S
C713        C714   1.401       .  A
C713        C718   1.389       .  A
C713        H720   1.085       .  S
C714        C715   1.405   1_554  A
C715        C716   1.381       .  A
C715        N722   1.433       .  S
C716        C717   1.402   1_556  A
C716        H721   1.084       .  S
C717        C718   1.412       .  A
C718        N719   1.440       .  S
N719        H723   1.046       .  S
N719        H724   1.046       .  S
N722        H725   1.046       .  S
N722        H726   1.046       .  S
C727        C728   1.396       .  A
C727        C732   1.392       .  A
C727        H734   1.084       .  S
C728        C729   1.413   1_556  A
C729        C730   1.385       .  A
C729        N736   1.441       .  S
C730        C731   1.392   1_554  A
C730        H735   1.085       .  S
C731        C732   1.406       .  A
C732        N733   1.438       .  S
N733        H737   1.046       .  S
N733        H738   1.045       .  S
N736        H739   1.046       .  S
N736        H740   1.046       .  S
C741        C742   1.404       .  A
C741        C746   1.394       .  A
C741        H748   1.083       .  S
C742        C743   1.424       .  A
C743        C744   1.381       .  A
C743        N750   1.429       .  S
C744        C745   1.387       .  A
C744        H749   1.085       .  S
C745        C746   1.409       .  A
C746        N747   1.434       .  S
N747        H751   1.045       .  S
N747        H752   1.043       .  S
N750        H753   1.045   1_565  S
N750        H754   1.046       .  S
C755        C756   1.401       .  A
C755        C760   1.397       .  A
C755        H762   1.085       .  S
C756        C757   1.395   1_655  A
C757        C758   1.384   1_455  A
C757        N764   1.438       .  S
C758        C759   1.406       .  A
C758        H763   1.082   1_655  S
C759        C760   1.400       .  A
C760        N761   1.436       .  S
N761        H765   1.046       .  S
N761        H766   1.045       .  S
N764        H767   1.046       .  S
N764        H768   1.046       .  S
C769        C770   1.397       .  A
C769        C774   1.382       .  A
C769        H776   1.085       .  S
C770        C771   1.400   1_565  A
C771        C772   1.384       .  A
C771        N778   1.437       .  S
C772        C773   1.397   1_545  A
C772        H777   1.084       .  S
C773        C774   1.405       .  A
C774        N775   1.439       .  S
N775        H779   1.045       .  S
N775        H780   1.044       .  S
N778        H781   1.045       .  S
N778        H782   1.046       .  S
C783        C784   1.406       .  A
C783        C788   1.389       .  A
C783        H790   1.082       .  S
C784        C785   1.425       .  A
C785        C786   1.388       .  A
C785        N792   1.431       .  S
C786        C787   1.394       .  A
C786        H791   1.085   1_655  S
C787        C788   1.408       .  A
C788        N789   1.434       .  S
N789        H793   1.046       .  S
N789        H794   1.045       .  S
N792        H795   1.045   1_655  S
N792        H796   1.046       .  S
C797        C798   1.402   1_565  A
C797        C802   1.384       .  A
C797        H804   1.083       .  S
C798        C799   1.406       .  A
C799        C800   1.386       .  A
C799        N806   1.435       .  S
C800        C801   1.402       .  A
C800        H805   1.084       .  S
C801        C802   1.405   1_545  A
C802        N803   1.434       .  S
N803        H807   1.046       .  S
N803        H808   1.046       .  S
N806        H809   1.046       .  S
N806        H810   1.046       .  S
C811        C812   1.401       .  A
C811        C816   1.393       .  A
C811        H818   1.084       .  S
C812        C813   1.403   1_455  A
C813        C814   1.381   1_655  A
C813        N820   1.435       .  S
C814        C815   1.402       .  A
C814        H819   1.084   1_455  S
C815        C816   1.405       .  A
C816        N817   1.438       .  S
N817        H821   1.046       .  S
N817        H822   1.045       .  S
N820        H823   1.045       .  S
N820        H824   1.046       .  S
C825        C826   1.398   1_565  A
C825        C830   1.384       .  A
C825        H832   1.085       .  S
C826        C827   1.405       .  A
C827        C828   1.383       .  A
C827        N834   1.440       .  S
C828        C829   1.398   1_545  A
C828        H833   1.084       .  S
C829        C830   1.405       .  A
C830        N831   1.439       .  S
N831        H835   1.046       .  S
N831        H836   1.045       .  S
N834        H837   1.046       .  S
N834        H838   1.046       .  S
C839        C840   1.392       .  A
C839        C844   1.382       .  A
C839        H846   1.085       .  S
C840        C841   1.412   1_455  A
C841        C842   1.381       .  A
C841        N848   1.440       .  S
C842        C843   1.392   1_655  A
C842        H847   1.085       .  S
C843        C844   1.411       .  A
C844        N845   1.439       .  S
N845        H849   1.046       .  S
N845        H850   1.042       .  S
N848        H851   1.043       .  S
N848        H852   1.046       .  S
