geometry optimzed in LAMMPS
_audit_creation_date              2020-11-30 
_audit_creation_method            'lammps2cif' 
_symmetry_space_group_name_H-M    'P1' 
_symmetry_Int_Tables_number       1 
_symmetry_cell_setting            triclinic 
loop_ 
_symmetry_equiv_pos_as_xyz 
  x,y,z 
_cell_length_a                    38.665021993937394 
_cell_length_b                    39.11085596619287 
_cell_length_c                    38.462975033113295 
_cell_angle_alpha                 89.37581357019603 
_cell_angle_beta                  89.79638242433523 
_cell_angle_gamma                 90.27980048005881 
loop_ 
_atom_site_label 
_atom_site_type_symbol 
_atom_site_fract_x 
_atom_site_fract_y 
_atom_site_fract_z 
_atom_site_charge 
O1          O  0.57331364  0.36756921  0.51180386    -0.75490
O2          O  0.60672488  0.33159693  0.54133097    -0.54400
C3          C  0.60237844  0.36004429  0.52503818     0.78240
O4          O  0.43179952  0.36485467  0.49629204    -0.60090
O5          O  0.41946775  0.33719499  0.44630063    -0.53120
C6          C  0.41540306  0.36166782  0.46792991     0.70250
O7          O  0.52225168  0.37307305  0.55499569    -0.74650
O8          O  0.55134415  0.33729725  0.59002125    -0.55220
C9          C  0.53713585  0.36648156  0.58361954     0.76250
O10         O  0.51847676  0.36321024  0.41367656    -0.59800
O11         O  0.46896954  0.33511336  0.39959962    -0.52920
C12         C  0.49136650  0.35924601  0.39535759     0.72850
Zr13       Zr  0.55013170  0.34054559  0.46137248     2.54710
O14         O  0.57013857  0.39693169  0.44343969    -0.80360
O15         O  0.60336981  0.33050578  0.42899484    -0.93780
Zr16       Zr  0.47545494  0.34112127  0.53193551     2.64680
O17         O  0.45640288  0.39498508  0.55572300    -0.98730
O18         O  0.43889242  0.33031613  0.58273100    -0.80790
O19         O  0.53484544  0.34064555  0.52016618    -0.84150
O20         O  0.49010973  0.34440737  0.47238605    -2.18860
O21         O  0.52783313  0.24557750  0.40016004    -0.67540
O22         O  0.47066002  0.25681914  0.40041796    -0.52110
C23         C  0.49855349  0.24961955  0.38445495     0.71230
O24         O  0.49209109  0.23700369  0.59299723    -0.60450
O25         O  0.54609948  0.25978029  0.60027129    -0.52430
C26         C  0.51792195  0.24594563  0.61193539     0.73030
O27         O  0.41375419  0.24748672  0.51360665    -0.71850
O28         O  0.41345563  0.26186898  0.45635996    -0.50520
C29         C  0.39810204  0.25263407  0.48453804     0.74410
O30         O  0.60474632  0.23386086  0.48662493    -0.67170
O31         O  0.60897447  0.25584277  0.54117003    -0.54370
C32         C  0.62192805  0.24098375  0.51437501     0.72800
Zr33       Zr  0.54685442  0.24079358  0.46148176     2.77540
O34         O  0.53339939  0.18011701  0.46636676    -0.97920
O35         O  0.58816187  0.21656114  0.42085777    -0.78740
Zr36       Zr  0.47396094  0.24129487  0.53231430     2.70070
O37         O  0.48137898  0.18140828  0.51773137    -0.79990
O38         O  0.43556339  0.20893708  0.57094496    -0.99080
Zr39       Zr  0.55824237  0.29138673  0.54684606     2.21500
Zr40       Zr  0.46531346  0.29453795  0.44829113     2.11130
O41         O  0.48623637  0.24120564  0.47173080    -2.47760
O42         O  0.53468222  0.23986493  0.52245241    -0.79780
O43         O  0.52572895  0.29200432  0.43575602    -0.71980
O44         O  0.49732506  0.29171674  0.55782439    -2.32940
O45         O  0.57276010  0.29056442  0.48583799    -2.29150
O46         O  0.45018753  0.29232495  0.50835111    -0.73740
H47         H  0.48214758  0.36581409  0.46277997     0.78260
H48         H  0.49220964  0.29536692  0.58198598     0.79340
H49         H  0.47506551  0.22207062  0.46065311     0.81570
H50         H  0.59734863  0.29264990  0.48206717     0.79180
H51         H  0.45123940  0.34125596  0.60223594     0.42210
H52         H  0.41828930  0.22570016  0.57903603     0.41180
H53         H  0.49638467  0.17219186  0.53638752     0.40860
H54         H  0.52775560  0.17321291  0.44234143     0.38790
H55         H  0.60025051  0.23664241  0.41054326     0.41930
H56         H  0.62098458  0.34482251  0.44061963     0.36710
H57         H  0.55387737  0.41288808  0.45472562     0.42830
H58         H  0.46156082  0.41195220  0.53709886     0.39240
H59         H  0.55591540  0.16915067  0.47128348     0.44160
H60         H  0.59966453  0.34187728  0.40618967     0.42880
H61         H  0.43086947  0.39312387  0.55624861     0.43020
H62         H  0.42247754  0.19331164  0.55569735     0.43380
O63         O  0.47528411  0.37986681  0.33942662    -0.75490
O64         O  0.50195535  0.41458772  0.37839467    -0.54400
C65         C  0.48788213  0.38621188  0.36944137     0.78240
O66         O  0.59490819  0.44041646  0.22775163    -0.60090
O67         O  0.57735992  0.48752820  0.20154724    -0.53120
C68         C  0.60260690  0.46750236  0.21144986     0.70250
O69         O  0.60476234  0.43925485  0.34517626    -0.74650
O70         O  0.56554969  0.45558791  0.38609865    -0.55220
C71         C  0.59559386  0.44553941  0.37665292     0.76250
O72         O  0.46956436  0.41893353  0.22454223    -0.59800
O73         O  0.50601515  0.43139027  0.18284558    -0.52920
C74         C  0.48793753  0.40883284  0.19919727     0.72850
Zr75       Zr  0.48705824  0.40827908  0.28401688     2.54710
O76         O  0.52414655  0.35904194  0.27656716    -0.80360
O77         O  0.43881477  0.36895032  0.27609151    -0.93780
Zr78       Zr  0.58079133  0.44885628  0.28726855     2.64680
O79         O  0.61015985  0.39398541  0.28517808    -0.98730
O80         O  0.63580103  0.47924993  0.28924731    -0.80790
O81         O  0.53495299  0.42400524  0.31880177    -0.84150
O82         O  0.53346092  0.43271951  0.25149155    -2.18860
O83         O  0.42894079  0.52167783  0.23870161    -0.67540
O84         O  0.44765444  0.48254738  0.20189265    -0.52110
C85         C  0.42234457  0.49971337  0.21592688     0.71230
O86         O  0.55615768  0.55391532  0.34956761    -0.60450
O87         O  0.52234787  0.52086542  0.38467508    -0.52430
C88         C  0.53765947  0.54889250  0.37653270     0.73030
O89         O  0.55704931  0.54784351  0.23223437    -0.71850
O90         O  0.51554530  0.54108884  0.19422004    -0.50520
C91         C  0.53615659  0.56107982  0.21062025     0.74410
O92         O  0.43567559  0.51583342  0.35384672    -0.67170
O93         O  0.46595790  0.47898834  0.38794397    -0.54370
C94         C  0.44009715  0.49818532  0.38169485     0.72800
Zr95       Zr  0.44581411  0.50000434  0.29423081     2.77540
O96         O  0.40197074  0.54432805  0.29949036    -0.97920
O97         O  0.39504782  0.46340319  0.30069924    -0.78740
Zr98       Zr  0.53882236  0.54205157  0.29184238     2.70070
O99         O  0.50115248  0.59178091  0.29261609    -0.79990
O100        O  0.58221125  0.58742664  0.29432848    -0.99080
Zr101      Zr  0.51520361  0.46925759  0.35327594     2.21500
Zr102      Zr  0.51230655  0.48244893  0.21832575     2.11130
O103        O  0.49065746  0.52460563  0.25903906    -2.47760
O104        O  0.49327726  0.51933707  0.32617332    -0.79780
O105        O  0.46694066  0.45828764  0.25530387    -0.71980
O106        O  0.56198239  0.49399761  0.32213697    -2.32940
O107        O  0.46598296  0.45005103  0.32251918    -2.29150
O108        O  0.55932748  0.49785409  0.25638722    -0.73740
H109        H  0.54153534  0.41489084  0.23657300     0.78260
H110        H  0.58089355  0.50066050  0.33694754     0.79340
H111        H  0.48220824  0.54499198  0.24787235     0.81570
H112        H  0.44854238  0.44051104  0.33787159     0.79180
H113        H  0.65290182  0.46172392  0.29622848     0.42210
H114        H  0.59627696  0.58532968  0.27297211     0.41180
H115        H  0.50340552  0.60092694  0.31640602     0.40860
H116        H  0.41123484  0.56439268  0.28650835     0.38790
H117        H  0.40317430  0.43995753  0.29593098     0.41930
H118        H  0.42066191  0.37697918  0.29223465     0.36710
H119        H  0.51495513  0.34158219  0.29303984     0.42830
H120        H  0.59807119  0.38111341  0.26677450     0.39240
H121        H  0.38203055  0.53628865  0.28563717     0.44160
H122        H  0.44667898  0.34698557  0.28630386     0.42880
H123        H  0.63323869  0.39929407  0.27519537     0.43020
H124        H  0.56920045  0.60895335  0.29105950     0.43380
O125        O  0.42820576  0.61303045  0.47063872    -0.75490
O126        O  0.46942965  0.57213179  0.47731389    -0.54400
C127        C  0.43837127  0.58191924  0.47482337     0.78240
O128        O  0.55796097  0.71826398  0.39848514    -0.60090
O129        O  0.52598572  0.76224904  0.41219528    -0.53120
C130        C  0.54108274  0.74402730  0.38836944     0.70250
O131        O  0.53600779  0.60739549  0.38509929    -0.74650
O132        O  0.52180339  0.57028176  0.42893587    -0.55220
C133        C  0.53180877  0.57729556  0.39826619     0.76250
O134        O  0.43173101  0.72437269  0.44784949    -0.59800
O135        O  0.46029084  0.76114749  0.48166319    -0.52920
C136        C  0.43124458  0.74951735  0.46799961     0.72850
Zr137      Zr  0.45091943  0.67131976  0.46964978     2.54710
O138        O  0.40001196  0.66697982  0.43287747    -0.80360
O139        O  0.40988478  0.68093500  0.51665386    -0.93780
Zr140      Zr  0.52608550  0.66613019  0.40273003     2.64680
O141        O  0.47600296  0.67043652  0.36433826    -0.98730
O142        O  0.55250879  0.66540327  0.34527358    -0.80790
O143        O  0.48540787  0.63502496  0.43586388    -0.84150
O144        O  0.49121931  0.70390621  0.43561926    -2.18860
O145        O  0.54254565  0.71893268  0.57169886    -0.67540
O146        O  0.52203862  0.76273668  0.53863462    -0.52110
C147        C  0.53138065  0.74905782  0.56871688     0.71230
O148        O  0.61181924  0.60574264  0.47044138    -0.60450
O149        O  0.56722098  0.56880260  0.48056284    -0.52430
C150        C  0.59852952  0.57570178  0.47323340     0.73030
O151        O  0.60835229  0.71740444  0.44995636    -0.71850
O152        O  0.58794198  0.75949078  0.48173522    -0.50520
C153        C  0.61431967  0.74254159  0.46937708     0.74410
O154        O  0.50391707  0.61492275  0.56975739    -0.67170
O155        O  0.51059275  0.57373422  0.52902744    -0.54370
C156        C  0.50319163  0.58393546  0.55943041     0.72800
Zr157      Zr  0.51912823  0.66992772  0.54619080     2.77540
O158        O  0.55497342  0.65352485  0.59561000    -0.97920
O159        O  0.47312893  0.68520606  0.58631114    -0.78740
Zr160      Zr  0.59419071  0.66449583  0.47814694     2.70070
O161        O  0.62683991  0.66679311  0.53191408    -0.79990
O162        O  0.65245201  0.65919190  0.45443816    -0.99080
Zr163      Zr  0.51950084  0.60551770  0.47728024     2.21500
Zr164      Zr  0.52436518  0.73993104  0.47529479     2.11130
O165        O  0.55883928  0.70158838  0.51100263    -2.47760
O166        O  0.55681558  0.63378093  0.51566690    -0.79780
O167        O  0.48492094  0.70488779  0.50877267    -0.71980
O168        O  0.56014445  0.63274684  0.44004201    -2.32940
O169        O  0.48164550  0.63913770  0.51026409    -2.29150
O170        O  0.55897291  0.69946876  0.44229044    -0.73740
H171        H  0.48072630  0.71834356  0.41822033     0.78260
H172        H  0.57532636  0.61869896  0.42646748     0.79340
H173        H  0.57551338  0.71437480  0.52419288     0.81570
H174        H  0.46488790  0.62606450  0.52352124     0.79180
H175        H  0.57727852  0.66077905  0.34967900     0.42210
H176        H  0.65333639  0.67394810  0.43338062     0.41180
H177        H  0.63967096  0.64495004  0.53271631     0.40860
H178        H  0.57793938  0.66390077  0.59083521     0.38790
H179        H  0.45330866  0.69136413  0.57134287     0.41930
H180        H  0.41105769  0.66003946  0.53134543     0.36710
H181        H  0.40928090  0.66102610  0.40969415     0.42830
H182        H  0.46283437  0.69095247  0.37092032     0.39240
H183        H  0.54567844  0.66644039  0.61555946     0.44160
H184        H  0.38692652  0.67956256  0.50541187     0.42880
H185        H  0.48534282  0.67555546  0.34087925     0.43020
H186        H  0.66775075  0.67045792  0.47138384     0.43380
O187        O  0.65356217  0.43990270  0.39368519    -0.75490
O188        O  0.61294044  0.45505688  0.43362893    -0.54400
C189        C  0.62225895  0.44561294  0.40323259     0.78240
O190        O  0.77296697  0.41255078  0.52789123    -0.60090
O191        O  0.81466636  0.42734847  0.49189571    -0.53120
C192        C  0.79883542  0.40400771  0.50950063     0.70250
O193        O  0.66055637  0.37901303  0.52922763    -0.74650
O194        O  0.62001959  0.41247746  0.50295524    -0.55220
C195        C  0.62956032  0.38533340  0.51945898     0.76250
O196        O  0.76943442  0.44145179  0.40201988    -0.59800
O197        O  0.79730276  0.48680893  0.42167575    -0.52920
C198        C  0.78716344  0.46792110  0.39575283     0.72850
Zr199      Zr  0.71076012  0.45097839  0.41745009     2.54710
O200        O  0.71538731  0.39986406  0.38219682    -0.80360
O201        O  0.70762437  0.48487083  0.36415127    -0.93780
Zr202      Zr  0.71398475  0.40450460  0.50801881     2.64680
O203        O  0.70892819  0.36269649  0.46210554    -0.98730
O204        O  0.72683328  0.35496616  0.54423556    -0.80790
O205        O  0.67876660  0.42288164  0.46143830    -0.84150
O206        O  0.74707003  0.43189255  0.46360673    -2.18860
O207        O  0.76531338  0.54597214  0.44536390    -0.67540
O208        O  0.80667478  0.53733486  0.48246091    -0.52110
C209        C  0.78774520  0.55852554  0.46565069     0.71230
O210        O  0.64742104  0.49607994  0.57227301    -0.60450
O211        O  0.60791182  0.47876257  0.53235717    -0.52430
C212        C  0.61659288  0.49003893  0.56205544     0.73030
O213        O  0.75668107  0.46400428  0.57390082    -0.71850
O214        O  0.79981971  0.49278635  0.54964212    -0.50520
C215        C  0.78330855  0.48228623  0.57758382     0.74410
O216        O  0.64834896  0.55411363  0.45017078    -0.67170
O217        O  0.61311026  0.51879770  0.48150806    -0.54370
C218        C  0.62109730  0.54770048  0.46777865     0.72800
Zr219      Zr  0.70642302  0.54082509  0.46477038     2.77540
O220        O  0.70303561  0.59093494  0.50185983    -0.97920
O221        O  0.70401040  0.58387364  0.41870752    -0.78740
Zr222      Zr  0.70676806  0.49323267  0.55460679     2.70070
O223        O  0.71749246  0.55045436  0.57636507    -0.79990
O224        O  0.69799633  0.48451076  0.61697077    -0.99080
Zr225      Zr  0.64476780  0.46662860  0.48527938     2.21500
Zr226      Zr  0.78089976  0.47995678  0.48652680     2.11130
O227        O  0.74136735  0.52131610  0.51174784    -2.47760
O228        O  0.67326975  0.51450868  0.50917014    -0.79780
O229        O  0.74210839  0.49846748  0.44084042    -0.71980
O230        O  0.67670123  0.44547345  0.53320255    -2.32940
O231        O  0.67553180  0.49439952  0.43965163    -2.29150
O232        O  0.74391294  0.45259896  0.52950610    -0.73740
H233        H  0.76226799  0.41474460  0.45465561     0.78260
H234        H  0.66257096  0.43606368  0.55173258     0.79340
H235        H  0.75387908  0.53976257  0.52250781     0.81570
H236        H  0.66030044  0.50220684  0.42143315     0.79180
H237        H  0.72827021  0.36409174  0.56810416     0.42210
H238        H  0.71394878  0.46609380  0.62426592     0.41180
H239        H  0.69417841  0.56050627  0.57891449     0.40860
H240        H  0.72430802  0.59116783  0.51597837     0.38790
H241        H  0.70883393  0.57106443  0.39716552     0.41930
H242        H  0.68532257  0.49713705  0.36514792     0.36710
H243        H  0.69648084  0.38466940  0.39054562     0.42830
H244        H  0.72890169  0.36643142  0.44647631     0.39240
H245        H  0.70527049  0.61084671  0.48592302     0.44160
H246        H  0.70442941  0.46783975  0.34555505     0.42880
H247        H  0.71243961  0.34032010  0.47374356     0.43020
H248        H  0.70696877  0.50540517  0.62809739     0.43380
O249        O  0.54279853  0.38771327  0.64014926    -0.75490
O250        O  0.52534839  0.42317611  0.59619971    -0.54400
C251        C  0.53599412  0.39420772  0.60833071     0.78240
O252        O  0.43174886  0.45842967  0.74533704    -0.60090
O253        O  0.44930526  0.50525224  0.77128313    -0.53120
C254        C  0.42417684  0.48491969  0.76194525     0.70250
O255        O  0.42109552  0.45290502  0.62803363    -0.74650
O256        O  0.46118358  0.46516638  0.58595189    -0.55220
C257        C  0.43078009  0.45677924  0.59612783     0.76250
O258        O  0.55353588  0.43120142  0.75079530    -0.59800
O259        O  0.51505626  0.44587629  0.78926145    -0.52920
C260        C  0.53365493  0.42248653  0.77562983     0.72850
Zr261      Zr  0.53589512  0.42143353  0.69150584     2.54710
O262        O  0.50770283  0.36730257  0.70449892    -0.80360
O263        O  0.59253434  0.39448597  0.69300610    -0.93780
Zr264      Zr  0.44398230  0.46744764  0.68522586     2.64680
O265        O  0.40020623  0.42249767  0.68848533    -0.98730
O266        O  0.39655587  0.50797959  0.68218038    -0.80790
O267        O  0.48859106  0.43818258  0.65582952    -0.84150
O268        O  0.48940258  0.44697482  0.72273206    -2.18860
O269        O  0.59764686  0.48150399  0.72702867    -0.67540
O270        O  0.57691664  0.51117286  0.77039569    -0.52110
C271        C  0.60374978  0.49898821  0.75365474     0.71230
O272        O  0.48058783  0.56953960  0.61262345    -0.60450
O273        O  0.50694138  0.52861970  0.58015800    -0.52430
C274        C  0.49545240  0.55876464  0.58516847     0.73030
O275        O  0.47919772  0.57325362  0.73047425    -0.71850
O276        O  0.52289013  0.55930903  0.76379362    -0.50520
C277        C  0.50485417  0.58244802  0.74841213     0.74410
O278        O  0.60072344  0.50226954  0.61798919    -0.67170
O279        O  0.55939930  0.48623463  0.57938428    -0.54370
C280        C  0.59030925  0.49395185  0.58764575     0.72800
Zr281      Zr  0.57914381  0.50968988  0.67601983     2.77540
O282        O  0.58896361  0.56837837  0.69281810    -0.97920
O283        O  0.64199986  0.51100648  0.67192763    -0.78740
Zr284      Zr  0.48890839  0.55516716  0.67216369     2.70070
O285        O  0.52875317  0.60331575  0.67275440    -0.79990
O286        O  0.43490055  0.58571508  0.66344178    -0.99080
Zr287      Zr  0.51173793  0.47973598  0.61715039     2.21500
Zr288      Zr  0.51276519  0.49762783  0.75245998     2.11130
O289        O  0.52089614  0.50869935  0.69252442    -2.47760
O290        O  0.53574749  0.53170874  0.64015896    -0.79780
O291        O  0.55754105  0.47064266  0.71862814    -0.71980
O292        O  0.46425390  0.50800089  0.64410818    -2.32940
O293        O  0.55978431  0.45948837  0.64938065    -2.29150
O294        O  0.46584080  0.51733072  0.71500406    -0.73740
H295        H  0.48069642  0.42898102  0.73770671     0.78260
H296        H  0.44644401  0.51528636  0.62816044     0.79340
H297        H  0.51133388  0.48919714  0.68096196     0.81570
H298        H  0.57723020  0.44771587  0.63613794     0.79180
H299        H  0.37890536  0.49682369  0.66748843     0.42210
H300        H  0.42057533  0.57943892  0.68393217     0.41180
H301        H  0.51542640  0.62250029  0.66256592     0.40860
H302        H  0.59290253  0.58062293  0.67047721     0.38790
H303        H  0.64895329  0.48671776  0.67370077     0.41930
H304        H  0.60732479  0.41112119  0.70533857     0.36710
H305        H  0.48341211  0.37064005  0.69717962     0.42830
H306        H  0.40600785  0.40862572  0.70932724     0.39240
H307        H  0.61208818  0.56794844  0.70370616     0.44160
H308        H  0.60130142  0.39539874  0.66880477     0.42880
H309        H  0.37855990  0.43442799  0.69469323     0.43020
H310        H  0.44108267  0.61001647  0.66707725     0.43380
O311        O  0.37298085  0.45298039  0.57932133    -0.75490
O312        O  0.41452474  0.46342341  0.53820536    -0.54400
C313        C  0.40448565  0.45636644  0.56934918     0.78240
O314        O  0.25169808  0.42019214  0.44764876    -0.60090
O315        O  0.21511545  0.44068590  0.48613452    -0.53120
C316        C  0.22712140  0.41476234  0.46885102     0.70250
O317        O  0.36163558  0.38498532  0.45170144    -0.74650
O318        O  0.40434052  0.41862988  0.47379050    -0.55220
C319        C  0.39249337  0.39017513  0.46221256     0.76250
O320        O  0.25803546  0.45811323  0.56810365    -0.59800
O321        O  0.23153966  0.50483599  0.55109599    -0.52920
C322        C  0.24171245  0.48449941  0.57621129     0.72850
Zr323      Zr  0.31735514  0.46698982  0.55476857     2.54710
O324        O  0.31119369  0.41948920  0.59572703    -0.80360
O325        O  0.32024147  0.50445957  0.60481466    -0.93780
Zr326      Zr  0.31044269  0.41652179  0.46733593     2.64680
O327        O  0.30660983  0.37024488  0.51008275    -0.98730
O328        O  0.29646684  0.37376713  0.42402038    -0.80790
O329        O  0.34707815  0.43516818  0.51241271    -0.84150
O330        O  0.27970922  0.44763188  0.51022152    -2.18860
O331        O  0.28500992  0.59047044  0.49177153    -0.67540
O332        O  0.23299684  0.56280087  0.48890647    -0.52110
C333        C  0.25245618  0.59080401  0.49013616     0.71230
O334        O  0.38252492  0.50611671  0.39638763    -0.60450
O335        O  0.41999741  0.48379931  0.43621629    -0.52430
C336        C  0.41268889  0.49702089  0.40671330     0.73030
O337        O  0.27086483  0.47087627  0.40460979    -0.71850
O338        O  0.22732735  0.50230375  0.42245267    -0.50520
C339        C  0.24418751  0.48777769  0.39705253     0.74410
O340        O  0.38169440  0.56526452  0.47130375    -0.67170
O341        O  0.42049161  0.52585400  0.48893934    -0.54370
C342        C  0.41234683  0.55612852  0.47868829     0.72800
Zr343      Zr  0.32932924  0.55175812  0.50153211     2.77540
O344        O  0.34234155  0.61274126  0.50621905    -0.97920
O345        O  0.34040943  0.56809093  0.56139213    -0.78740
Zr346      Zr  0.32246184  0.50198338  0.41467666     2.70070
O347        O  0.30790026  0.55509763  0.38461466    -0.79990
O348        O  0.33010598  0.48383228  0.35468782    -0.99080
Zr349      Zr  0.38437686  0.47534557  0.48511160     2.21500
Zr350      Zr  0.24803313  0.49756282  0.48625803     2.11130
O351        O  0.29069469  0.53356478  0.45699995    -2.47760
O352        O  0.35832719  0.52257021  0.45765497    -0.79780
O353        O  0.28882510  0.51570871  0.52962076    -0.71980
O354        O  0.35037052  0.45384470  0.43895888    -2.32940
O355        O  0.35708638  0.50618646  0.52984732    -2.29150
O356        O  0.28439418  0.46664426  0.44633549    -0.73740
H357        H  0.26478581  0.43005983  0.51962647     0.78260
H358        H  0.36380929  0.44246519  0.42135313     0.79340
H359        H  0.27984923  0.55191180  0.44421710     0.81570
H360        H  0.37361225  0.51469068  0.54644609     0.79180
H361        H  0.30048106  0.38556718  0.40144611     0.42210
H362        H  0.31351501  0.46483646  0.35130961     0.41180
H363        H  0.32731437  0.57076028  0.38997843     0.40860
H364        H  0.34549604  0.62124880  0.48204954     0.38790
H365        H  0.31899997  0.57971098  0.56886809     0.41930
H366        H  0.34396328  0.51407664  0.60436591     0.36710
H367        H  0.31895860  0.39925547  0.58261615     0.42830
H368        H  0.28828017  0.37639282  0.52679807     0.39240
H369        H  0.36572037  0.61401422  0.51655746     0.44160
H370        H  0.32030254  0.48860438  0.62505794     0.42880
H371        H  0.29752057  0.35049612  0.49705492     0.43020
H372        H  0.32137583  0.50288076  0.34012534     0.43380
O373        O  0.87296086  0.48491621  0.89445734    -0.75490
O374        O  0.91260161  0.49402636  0.93697523    -0.54400
C375        C  0.90350321  0.49024254  0.90563575     0.78240
O376        O  0.75930047  0.57814697  0.95730921    -0.60090
O377        O  0.72192499  0.56274303  0.99677747    -0.53120
C378        C  0.73869286  0.58679530  0.98071346     0.70250
O379        O  0.87652473  0.58482098  0.95878375    -0.74650
O380        O  0.91296164  0.54525953  0.98184242    -0.55220
C381        C  0.90624520  0.57459930  0.96907600     0.76250
O382        O  0.75845295  0.46457861  0.90798979    -0.59800
O383        O  0.72116109  0.50386787  0.92305030    -0.52920
C384        C  0.73641677  0.48630900  0.89861768     0.72850
Zr385      Zr  0.81509713  0.48682012  0.91515005     2.54710
O386        O  0.81306982  0.53143376  0.87067803    -0.80360
O387        O  0.81490693  0.44755920  0.86644921    -0.93780
Zr388      Zr  0.81787964  0.56811090  0.97283864     2.64680
O389        O  0.82414161  0.61418087  0.93042381    -0.98730
O390        O  0.81981783  0.61263647  0.01637787    -0.80790
O391        O  0.84981851  0.52706164  0.94316792    -0.84150
O392        O  0.78148645  0.52837027  0.94316407    -2.18860
O393        O  0.75993441  0.42915252  0.96545963    -0.67540
O394        O  0.71204959  0.44498233  0.98989507    -0.52110
C395        C  0.73150815  0.42058626  0.97921082     0.71230
O396        O  0.87230540  0.50732742  0.07921286    -0.60450
O397        O  0.91204632  0.49704072  0.03692335    -0.52430
C398        C  0.90282546  0.50090065  0.06831379     0.73030
O399        O  0.76055488  0.53626201  0.06629483    -0.71850
O400        O  0.72100243  0.49952078  0.05078414    -0.50520
C401        C  0.73739437  0.51528606  0.07553230     0.74410
O402        O  0.86870419  0.40585623  0.99285711    -0.67170
O403        O  0.91143043  0.44584986  0.99052219    -0.54370
C404        C  0.90034374  0.41522056  0.99092552     0.72800
Zr405      Zr  0.81183589  0.42874218  0.99844884     2.77540
O406        O  0.80508382  0.39684106  0.05285152    -0.97920
O407        O  0.80860550  0.36977530  0.97972953    -0.78740
Zr408      Zr  0.81461836  0.50961422  0.05723775     2.70070
O409        O  0.80491141  0.46706786  0.10275566    -0.79990
O410        O  0.82516717  0.54890423  0.10484105    -0.99080
Zr411      Zr  0.87838396  0.49597133  0.98670640     2.21500
Zr412      Zr  0.74189680  0.50218199  0.98705856     2.11130
O413        O  0.77779245  0.46954842  0.02852528    -2.47760
O414        O  0.84651110  0.46665571  0.02964069    -0.79780
O415        O  0.78014591  0.46226170  0.95878480    -0.71980
O416        O  0.84940613  0.53949295  0.01675839    -2.32940
O417        O  0.84727029  0.45453266  0.95519520    -2.29150
O418        O  0.78222313  0.54065020  0.01528333    -0.73740
H419        H  0.77101876  0.53785412  0.92241265     0.78260
H420        H  0.86504158  0.55490731  0.02839459     0.79340
H421        H  0.76374602  0.45698976  0.04505766     0.81570
H422        H  0.86118753  0.43889300  0.94191669     0.79180
H423        H  0.84204715  0.62466836  0.01210756     0.42210
H424        H  0.80706320  0.56663284  0.10314002     0.41180
H425        H  0.82716185  0.45480677  0.10480683     0.40860
H426        H  0.78683110  0.40830265  0.06630552     0.38790
H427        H  0.81502636  0.37072321  0.95478905     0.41930
H428        H  0.83330998  0.43083211  0.87187231     0.36710
H429        H  0.82849635  0.54975832  0.87922828     0.42830
H430        H  0.80122516  0.61694298  0.91947126     0.39240
H431        H  0.79551721  0.37425184  0.04662832     0.44160
H432        H  0.82411476  0.46111976  0.84655288     0.42880
H433        H  0.82765186  0.63471304  0.94476635     0.43020
H434        H  0.81957045  0.53564574  0.12620700     0.43380
O435        O  0.91872182  0.49964241  0.84943474    -0.75490
O436        O  0.96052707  0.49098940  0.89005334    -0.54400
C437        C  0.92934970  0.49361441  0.88021764     0.78240
O438        O  0.98470371  0.40996961  0.73552626    -0.60090
O439        O  0.02077773  0.43604228  0.69861705    -0.53120
C440        C  0.00624951  0.40779753  0.71128501     0.70250
O441        O  0.98098370  0.40995105  0.84374014    -0.74650
O442        O  0.00823011  0.44113772  0.88453365    -0.55220
C443        C  0.99310554  0.41414792  0.87423311     0.76250
O444        O  0.93392364  0.53368806  0.73926860    -0.59800
O445        O  0.95073626  0.50103670  0.69622449    -0.52920
C446        C  0.92575502  0.51603828  0.71336341     0.72850
Zr447      Zr  0.93972031  0.50130746  0.79138725     2.54710
O448        O  0.90412473  0.45052620  0.78408533    -0.80360
O449        O  0.88331951  0.52882278  0.79117738    -0.93780
Zr450      Zr  0.00659077  0.42755058  0.78924949     2.64680
O451        O  0.98520025  0.36870163  0.79291206    -0.98730
O452        O  0.05593138  0.38946272  0.79307737    -0.80790
O453        O  0.97153359  0.46186686  0.82378551    -0.84150
O454        O  0.97335716  0.46661255  0.75425966    -2.18860
O455        O  0.98492953  0.57992974  0.74241006    -0.67540
O456        O  0.02033288  0.56489398  0.70089578    -0.52110
C457        C  0.00561259  0.58929395  0.71885916     0.71230
O458        O  0.09889511  0.51629225  0.84906313    -0.60450
O459        O  0.06224212  0.49140748  0.88776456    -0.52430
C460        C  0.09115295  0.50479866  0.87933902     0.73030
O461        O  0.10412253  0.52163644  0.74225339    -0.71850
O462        O  0.07821423  0.49402947  0.69895021    -0.50520
C463        C  0.10630135  0.50501499  0.71468453     0.74410
O464        O  0.02140678  0.58497382  0.85460938    -0.67170
O465        O  0.01666667  0.54113244  0.89360928    -0.54370
C466        C  0.02188751  0.57229403  0.88532175     0.72800
Zr467      Zr  0.01294585  0.56859935  0.79570581     2.77540
O468        O  0.06122073  0.60767775  0.78622953    -0.97920
O469        O  0.98063400  0.62110753  0.80418872    -0.78740
Zr470      Zr  0.08202397  0.49575735  0.79272814     2.70070
O471        O  0.14355235  0.50974134  0.79464632    -0.79990
O472        O  0.11306525  0.44167045  0.79425811    -0.99080
Zr473      Zr  0.01049675  0.49458452  0.85624390     2.21500
Zr474      Zr  0.01395387  0.50016464  0.71860057     2.11130
O475        O  0.04750737  0.53455391  0.75895844    -2.47760
O476        O  0.04870535  0.53176802  0.82727334    -0.79780
O477        O  0.98008257  0.53354392  0.75897076    -0.71980
O478        O  0.04617228  0.45766082  0.82425925    -2.32940
O479        O  0.97417587  0.53495089  0.82848075    -2.29150
O480        O  0.04631755  0.46195105  0.75586749    -0.73740
H481        H  0.95549802  0.45687266  0.73996389     0.78260
H482        H  0.05937466  0.44256918  0.83912356     0.79340
H483        H  0.05922598  0.55285259  0.74675346     0.81570
H484        H  0.96096618  0.54877383  0.84435958     0.79180
H485        H  0.05429401  0.37908989  0.81663387     0.42210
H486        H  0.10382653  0.42901701  0.77422278     0.41180
H487        H  0.14464195  0.53483851  0.79770439     0.40860
H488        H  0.08112439  0.59624907  0.79747286     0.38790
H489        H  0.95615779  0.61361050  0.80542542     0.41930
H490        H  0.88582746  0.54841450  0.80707483     0.36710
H491        H  0.89096556  0.44822838  0.80612371     0.42830
H492        H  0.96171890  0.36895576  0.78270978     0.39240
H493        H  0.05616249  0.62740501  0.80131802     0.44160
H494        H  0.86762863  0.51271174  0.80359117     0.42880
H495        H  0.99936923  0.35527551  0.77659425     0.43020
H496        H  0.13730351  0.44691533  0.78773905     0.43380
O497        O  0.14755148  0.51500079  0.89594419    -0.75490
O498        O  0.10919761  0.49089829  0.93426758    -0.54400
C499        C  0.11745449  0.50443652  0.90504597     0.78240
O500        O  0.25871827  0.39522586  0.94632293    -0.60090
O501        O  0.29088435  0.41273630  0.99004327    -0.53120
C502        C  0.27794101  0.38767195  0.97142568     0.70250
O503        O  0.14351213  0.39147054  0.95932622    -0.74650
O504        O  0.10532794  0.43239658  0.97624673    -0.55220
C505        C  0.11337925  0.40224155  0.96738822     0.76250
O506        O  0.26261550  0.51993128  0.91010381    -0.59800
O507        O  0.30044945  0.48024532  0.92345633    -0.52920
C508        C  0.28495697  0.49885570  0.89985190     0.72850
Zr509      Zr  0.20430747  0.49917391  0.91501481     2.54710
O510        O  0.20283018  0.45534975  0.87066406    -0.80360
O511        O  0.21080767  0.53667157  0.86430582    -0.93780
Zr512      Zr  0.20202589  0.41135612  0.96247530     2.64680
O513        O  0.19743389  0.38036739  0.90805398    -0.98730
O514        O  0.19923096  0.35673962  0.99300140    -0.80790
O515        O  0.16900805  0.45542931  0.93815801    -0.84150
O516        O  0.23817881  0.45548104  0.94019500    -2.18860
O517        O  0.25793561  0.56588476  0.02328184    -0.67540
O518        O  0.28929132  0.54507943  0.98020079    -0.52110
C519        C  0.27716013  0.57157453  0.99771164     0.71230
O520        O  0.14704876  0.45656395  0.07811477    -0.60450
O521        O  0.10729440  0.47125337  0.03697256    -0.52430
C522        C  0.11644090  0.46402645  0.06798514     0.73030
O523        O  0.26342872  0.43980992  0.06571734    -0.71850
O524        O  0.29888262  0.48098797  0.04853822    -0.50520
C525        C  0.28422009  0.46350539  0.07380493     0.74410
O526        O  0.15049588  0.56958677  0.01370815    -0.67170
O527        O  0.10875529  0.53095372  0.99979599    -0.54370
C528        C  0.11909778  0.56061599  0.00912925     0.72800
Zr529      Zr  0.20523432  0.54413794  0.00373842     2.77540
O530        O  0.19768056  0.59384409  0.04162093    -0.97920
O531        O  0.21213598  0.55752477  0.94054917    -0.78740
Zr532      Zr  0.20458186  0.45491898  0.05414243     2.70070
O533        O  0.20671299  0.48145906  0.11084539    -0.79990
O534        O  0.19841100  0.39982279  0.08357929    -0.99080
Zr535      Zr  0.14016094  0.48019995  0.98600932     2.21500
Zr536      Zr  0.27652809  0.47813303  0.98568592     2.11130
O537        O  0.23781416  0.50054645  0.03017882    -2.47760
O538        O  0.17300541  0.50168053  0.03206291    -0.79780
O539        O  0.23979500  0.52011031  0.96065212    -0.71980
O540        O  0.17020907  0.43282076  0.00981095    -2.32940
O541        O  0.16996718  0.52539695  0.95884773    -2.29150
O542        O  0.23770342  0.43359636  0.00749637    -0.73740
H543        H  0.25058753  0.44633145  0.92071125     0.78260
H544        H  0.15488464  0.41586954  0.01996255     0.79340
H545        H  0.24874149  0.51191513  0.04924906     0.81570
H546        H  0.15422912  0.54295778  0.95085527     0.79180
H547        H  0.18102147  0.35930616  0.01091557     0.42210
H548        H  0.20753789  0.38310380  0.06679715     0.41180
H549        H  0.19809047  0.50495729  0.10676513     0.40860
H550        H  0.19618552  0.58394731  0.06540191     0.38790
H551        H  0.23337990  0.57035169  0.93334208     0.41930
H552        H  0.19547094  0.55636878  0.86869851     0.36710
H553        H  0.18127778  0.45979357  0.85757267     0.42830
H554        H  0.21619757  0.38961528  0.89304583     0.39240
H555        H  0.21890012  0.60807729  0.04197241     0.44160
H556        H  0.19967229  0.52424476  0.84501253     0.42880
H557        H  0.20483173  0.35680032  0.91394425     0.43020
H558        H  0.21576141  0.40030265  0.10245184     0.43380
O559        O  0.91727536  0.49350411  0.12528259    -0.75490
O560        O  0.95914688  0.48986959  0.08379479    -0.54400
C561        C  0.92824256  0.49497382  0.09400062     0.78240
O562        O  0.98583725  0.56800432  0.23803086    -0.60090
O563        O  0.01960539  0.54054805  0.27572784    -0.53120
C564        C  0.00656314  0.56923189  0.26293648     0.70250
O565        O  0.98530396  0.56964889  0.13015631    -0.74650
O566        O  0.00995962  0.53669594  0.08901548    -0.55220
C567        C  0.99597072  0.56422443  0.09923086     0.76250
O568        O  0.93244134  0.44786275  0.23469425    -0.59800
O569        O  0.94713694  0.48008782  0.27791045    -0.52920
C570        C  0.92260632  0.46592733  0.25958030     0.72850
Zr571      Zr  0.93755979  0.47872592  0.18176559     2.54710
O572        O  0.89559825  0.52190074  0.19792546    -0.80360
O573        O  0.88789228  0.44193173  0.17075379    -0.93780
Zr574      Zr  0.00875344  0.54982118  0.18477600     2.64680
O575        O  0.99199088  0.60985467  0.18023014    -0.98730
O576        O  0.06133794  0.58421816  0.18535006    -0.80790
O577        O  0.97238880  0.51698089  0.15012210    -0.84150
O578        O  0.97256386  0.51211990  0.21893343    -2.18860
O579        O  0.97657983  0.39924579  0.22961460    -0.67540
O580        O  0.01094061  0.41142913  0.27267734    -0.52110
C581        C  0.99500653  0.38812281  0.25400611     0.71230
O582        O  0.09862175  0.45875862  0.12528082    -0.60450
O583        O  0.06204945  0.48117663  0.08521525    -0.52430
C584        C  0.09060642  0.46762737  0.09426752     0.73030
O585        O  0.09991713  0.45219469  0.23227199    -0.71850
O586        O  0.07538164  0.48231700  0.27436622    -0.50520
C587        C  0.10311326  0.47025522  0.25872260     0.74410
O588        O  0.00697592  0.39298674  0.11848711    -0.67170
O589        O  0.00927583  0.43659965  0.07909430    -0.54370
C590        C  0.00815592  0.40514348  0.08766069     0.72800
Zr591      Zr  0.00764587  0.40905120  0.17768603     2.77540
O592        O  0.05392390  0.36745836  0.18510461    -0.97920
O593        O  0.97469800  0.35698992  0.16775770    -0.78740
Zr594      Zr  0.08015062  0.47849262  0.18136094     2.70070
O595        O  0.14069153  0.46115811  0.18042954    -0.79990
O596        O  0.11364336  0.53149010  0.18055317    -0.99080
Zr597      Zr  0.00967059  0.48312932  0.11695320     2.21500
Zr598      Zr  0.01053822  0.47692289  0.25537649     2.11130
O599        O  0.04319039  0.44126817  0.21533131    -2.47760
O600        O  0.04564865  0.44408057  0.14601900    -0.79780
O601        O  0.97586218  0.44497513  0.21437914    -0.71980
O602        O  0.04692217  0.51822554  0.14946422    -2.32940
O603        O  0.97107947  0.44467592  0.14486198    -2.29150
O604        O  0.04573599  0.51346191  0.21830151    -0.73740
H605        H  0.95473531  0.52249787  0.23277173     0.78260
H606        H  0.06112656  0.53276882  0.13474114     0.79340
H607        H  0.05340187  0.42274445  0.22834877     0.81570
H608        H  0.95649520  0.43229183  0.12895386     0.79180
H609        H  0.06260020  0.59478565  0.16186048     0.42210
H610        H  0.10832213  0.54231440  0.20300804     0.41180
H611        H  0.14021595  0.43599920  0.17774833     0.40860
H612        H  0.06301984  0.37040144  0.20880924     0.38790
H613        H  0.95072775  0.36491248  0.16380679     0.41930
H614        H  0.89442840  0.42842425  0.15014897     0.36710
H615        H  0.90416881  0.54319098  0.18662866     0.42830
H616        H  0.96833800  0.61115277  0.19007852     0.39240
H617        H  0.04221634  0.34489537  0.18557100     0.44160
H618        H  0.86963667  0.45757601  0.16225745     0.42880
H619        H  0.00673988  0.62242896  0.19673638     0.43020
H620        H  0.13825810  0.52494072  0.18234214     0.43380
O621        O  0.98486543  0.35657895  0.88646159    -0.75490
O622        O  0.00048364  0.39314524  0.92923108    -0.54400
C623        C  0.99181954  0.38627328  0.89823048     0.78240
O624        O  0.89940495  0.25601097  0.95810241    -0.60090
O625        O  0.92721703  0.21005269  0.98091467    -0.53120
C626        C  0.89840385  0.22706630  0.97239114     0.70250
O627        O  0.91172808  0.35859071  0.98501994    -0.74650
O628        O  0.95657065  0.39619143  0.98638465    -0.55220
C629        C  0.92460205  0.38854142  0.98729800     0.76250
O630        O  0.97383432  0.24847206  0.88272488    -0.59800
O631        O  0.00303929  0.20700567  0.91040522    -0.52920
C632        C  0.99271718  0.22250315  0.88156378     0.72850
Zr633      Zr  0.99632289  0.29904899  0.90595094     2.54710
O634        O  0.96691025  0.30187076  0.85007829    -0.80360
O635        O  0.04693401  0.29856411  0.86796317    -0.93780
Zr636      Zr  0.92930003  0.30056825  0.98267053     2.64680
O637        O  0.87265175  0.31721176  0.96038888    -0.98730
O638        O  0.89891663  0.28812245  0.03691047    -0.80790
O639        O  0.96244415  0.33288044  0.94307514    -0.84150
O640        O  0.96185786  0.26569535  0.94440779    -2.18860
O641        O  0.09088489  0.24158994  0.99998913    -0.67540
O642        O  0.05987780  0.20197292  0.97144278    -0.52110
C643        C  0.08966059  0.21432619  0.98326601     0.71230
O644        O  0.00244398  0.34974958  0.07141586    -0.60450
O645        O  0.01151986  0.39077458  0.02996738    -0.52430
C646        C  0.00751333  0.38054914  0.06116648     0.73030
O647        O  0.96848414  0.24225946  0.05948994    -0.71850
O648        O  0.99890884  0.19965034  0.03845642    -0.50520
C649        C  0.98591509  0.21559812  0.06525985     0.74410
O650        O  0.09614056  0.34633212  0.97068756    -0.67170
O651        O  0.05602632  0.38857859  0.97277797    -0.54370
C652        C  0.08676298  0.37754601  0.96985538     0.72800
Zr653      Zr  0.06969663  0.29128776  0.97453970     2.77540
O654        O  0.12634106  0.30007398  0.00100297    -0.97920
O655        O  0.10264090  0.27892836  0.92213859    -0.78740
Zr656      Zr  0.00198211  0.29278215  0.05020205     2.70070
O657        O  0.05479605  0.27944437  0.08170859    -0.79990
O658        O  0.98041985  0.29703503  0.10972245    -0.99080
Zr659      Zr  0.00353481  0.35895012  0.97943857     2.21500
Zr660      Zr  0.99518544  0.22405352  0.97576192     2.11130
O661        O  0.03287776  0.25764890  0.01225188    -2.47760
O662        O  0.03990504  0.32518232  0.01458596    -0.79780
O663        O  0.03110143  0.26014605  0.93873473    -0.71980
O664        O  0.96645875  0.33027670  0.01890619    -2.32940
O665        O  0.03677568  0.32808165  0.93941466    -2.29150
O666        O  0.96358229  0.26164250  0.01422152    -0.73740
H667        H  0.94670629  0.25229431  0.93054998     0.78260
H668        H  0.95332185  0.34502431  0.03392458     0.79340
H669        H  0.04326177  0.24244291  0.02906541     0.81570
H670        H  0.05067278  0.34262033  0.92445896     0.79180
H671        H  0.91441687  0.29637744  0.05548735     0.42210
H672        H  0.96042767  0.28123827  0.11167717     0.41180
H673        H  0.06126596  0.30114689  0.09305642     0.40860
H674        H  0.12423554  0.29177203  0.02534158     0.38790
H675        H  0.08878649  0.26204436  0.90917594     0.41930
H676        H  0.03720712  0.29740406  0.84424323     0.36710
H677        H  0.94249552  0.30692633  0.85588220     0.42830
H678        H  0.87149935  0.30939705  0.93600861     0.39240
H679        H  0.14215817  0.28382978  0.98954824     0.44160
H680        H  0.05684871  0.32189889  0.86900247     0.42880
H681        H  0.85549610  0.30310803  0.97330551     0.43020
H682        H  0.99851688  0.28683704  0.12461419     0.43380
O683        O  0.98755699  0.62144035  0.08550973    -0.75490
O684        O  0.00576240  0.58429262  0.04419967    -0.54400
C685        C  0.99519823  0.59162399  0.07459324     0.78240
O686        O  0.94267756  0.74016861  0.96051246    -0.60090
O687        O  0.96030035  0.77569546  0.00069291    -0.53120
C688        C  0.93477523  0.76172254  0.98334815     0.70250
O689        O  0.92653297  0.62966067  0.96059819    -0.74650
O690        O  0.96205618  0.58936724  0.98381692    -0.55220
C691        C  0.93363082  0.59916343  0.97015636     0.76250
O692        O  0.98731467  0.73378281  0.08291782    -0.59800
O693        O  0.02952641  0.76754228  0.06406840    -0.52920
C694        C  0.01151150  0.75413848  0.08968703     0.72850
Zr695      Zr  0.00386538  0.67805176  0.06651158     2.54710
O696        O  0.96642384  0.67849158  0.11751433    -0.80360
O697        O  0.04876069  0.67601710  0.11076484    -0.93780
Zr698      Zr  0.94895841  0.68286523  0.98086535     2.64680
O699        O  0.90593186  0.67519570  0.02668900    -0.98730
O700        O  0.89709962  0.69088174  0.94610564    -0.80790
O701        O  0.97269433  0.64744453  0.02429778    -0.84150
O702        O  0.97776734  0.71449978  0.02425571    -2.18860
O703        O  0.10179541  0.72963372  0.03762639    -0.67540
O704        O  0.08761825  0.77025631  0.00044498    -0.52110
C705        C  0.11159792  0.75329989  0.01722192     0.71230
O706        O  0.03232535  0.62694421  0.90303835    -0.60450
O707        O  0.02236549  0.58507347  0.94346035    -0.52430
C708        C  0.02676185  0.59594183  0.91248205     0.73030
O709        O  0.00022560  0.73233662  0.91568137    -0.71850
O710        O  0.02853296  0.77632321  0.93688590    -0.50520
C711        C  0.01631174  0.75998795  0.91006659     0.74410
O712        O  0.10607475  0.61743934  0.01800175    -0.67170
O713        O  0.06353003  0.58073593  0.00112156    -0.54370
C714        C  0.09429321  0.58766089  0.01058548     0.72800
Zr715      Zr  0.08965365  0.67660782  0.01065365     2.77540
O716        O  0.13633882  0.67815189  0.96779431    -0.97920
O717        O  0.13910321  0.67158252  0.04937927    -0.78740
Zr718      Zr  0.03511771  0.68359309  0.92604612     2.70070
O719        O  0.08944838  0.70117647  0.89879985    -0.79990
O720        O  0.02340777  0.67829979  0.86405273    -0.99080
Zr721      Zr  0.01574504  0.61741973  0.99393044     2.21500
Zr722      Zr  0.02307712  0.75197904  0.99939403     2.11130
O723        O  0.06454411  0.71515654  0.96914239    -2.47760
O724        O  0.06185608  0.64664630  0.96601804    -0.79780
O725        O  0.04834986  0.71127494  0.03977408    -0.71980
O726        O  0.98970121  0.65067409  0.94984747    -2.32940
O727        O  0.04615990  0.64446844  0.03929819    -2.29150
O728        O  0.99455219  0.71619900  0.95738933    -0.73740
H729        H  0.95871786  0.72647084  0.03455816     0.78260
H730        H  0.97859609  0.63802882  0.93159700     0.79340
H731        H  0.08199650  0.72856359  0.95723037     0.81570
H732        H  0.05571262  0.62846091  0.05592799     0.79180
H733        H  0.90538748  0.69070596  0.92171448     0.42210
H734        H  0.00393927  0.69387367  0.85906720     0.41180
H735        H  0.10054803  0.67947088  0.89201972     0.40860
H736        H  0.13305709  0.69901061  0.95353245     0.38790
H737        H  0.12920079  0.66356480  0.07181797     0.41930
H738        H  0.07089525  0.67852467  0.09796929     0.36710
H739        H  0.94267131  0.67957411  0.10802855     0.42830
H740        H  0.91467049  0.68751483  0.04715475     0.39240
H741        H  0.15765113  0.68238360  0.98128893     0.44160
H742        H  0.04861874  0.65205151  0.11932910     0.42880
H743        H  0.88530315  0.68780564  0.01876013     0.43020
H744        H  0.04357016  0.68829116  0.85171330     0.43380
O745        O  0.62911935  0.83991269  0.01623904    -0.75490
O746        O  0.59656368  0.88423322  0.99563795    -0.54400
C747        C  0.62464323  0.87094009  0.00721173     0.78240
O748        O  0.56091900  0.74385580  0.89180617    -0.60090
O749        O  0.52213333  0.70707566  0.91527919    -0.53120
C750        C  0.53852363  0.72022527  0.88864770     0.70250
O751        O  0.57360792  0.85543314  0.89403406    -0.74650
O752        O  0.55468485  0.89379918  0.93420970    -0.55220
C753        C  0.56816162  0.88601444  0.90437953     0.76250
O754        O  0.59917721  0.73223922  0.02173558    -0.59800
O755        O  0.58521949  0.69746081  0.97984122    -0.52920
C756        C  0.60863399  0.70965879  0.00058098     0.72850
Zr757      Zr  0.60182901  0.78833731  0.99725464     2.54710
O758        O  0.64317495  0.78272537  0.94976907    -0.80360
O759        O  0.65479540  0.77992694  0.03039639    -0.93780
Zr760      Zr  0.54913559  0.80064521  0.91207064     2.64680
O761        O  0.58637176  0.80199988  0.86068576    -0.98730
O762        O  0.50299903  0.80828936  0.86993252    -0.80790
O763        O  0.57901792  0.82827232  0.95733116    -0.84150
O764        O  0.57267856  0.75990826  0.95221494    -2.18860
O765        O  0.49505337  0.73536818  0.06669293    -0.67540
O766        O  0.52870344  0.69857601  0.03814410    -0.52110
C767        C  0.51483987  0.70968108  0.06681141     0.71230
O768        O  0.44177857  0.85894126  0.98048557    -0.60450
O769        O  0.48504616  0.89785458  0.98896105    -0.52430
C770        C  0.45261319  0.88912557  0.98709938     0.73030
O771        O  0.44172314  0.75020657  0.94439690    -0.71850
O772        O  0.46139986  0.70834427  0.97907951    -0.50520
C773        C  0.43565994  0.72513458  0.96487169     0.74410
O774        O  0.52886110  0.84061826  0.08387797    -0.67170
O775        O  0.54253191  0.88547007  0.04756727    -0.54370
C776        C  0.53816799  0.87140382  0.07795961     0.72800
Zr777      Zr  0.51566747  0.79128974  0.05129248     2.77540
O778        O  0.46155393  0.80360757  0.08107069    -0.97920
O779        O  0.54580161  0.78075080  0.10552328    -0.78740
Zr780      Zr  0.46393087  0.80408079  0.96463808     2.70070
O781        O  0.40707387  0.80050704  0.99154615    -0.79990
O782        O  0.43717836  0.82242440  0.91036141    -0.99080
Zr783      Zr  0.53866391  0.86283222  0.98796395     2.21500
Zr784      Zr  0.52572998  0.72539547  0.97775452     2.11130
O785        O  0.48632499  0.76459986  0.00573571    -2.47760
O786        O  0.49180180  0.83094183  0.01188169    -0.79780
O787        O  0.55578206  0.75608374  0.02266534    -0.71980
O788        O  0.50915069  0.83714545  0.94018801    -2.32940
O789        O  0.56268702  0.82218847  0.02739768    -2.29150
O790        O  0.50369357  0.76752343  0.93676470    -0.73740
H791        H  0.59026970  0.74596732  0.94169914     0.78260
H792        H  0.50009166  0.85424253  0.92440115     0.79340
H793        H  0.46656051  0.75397869  0.01653786     0.81570
H794        H  0.57628094  0.83192951  0.04572897     0.79180
H795        H  0.51426535  0.81951129  0.84962761     0.42210
H796        H  0.43408367  0.80119730  0.89691273     0.41180
H797        H  0.41115561  0.80550337  0.01637949     0.40860
H798        H  0.44500407  0.78628194  0.07247770     0.38790
H799        H  0.57055982  0.78397664  0.09959463     0.41930
H800        H  0.65127651  0.79121670  0.05304910     0.36710
H801        H  0.64328109  0.80536281  0.93799702     0.42830
H802        H  0.60650185  0.78755771  0.86668311     0.39240
H803        H  0.46579696  0.79683280  0.10556741     0.44160
H804        H  0.67317043  0.79330503  0.01835460     0.42880
H805        H  0.57374942  0.78910109  0.84264796     0.43020
H806        H  0.41340848  0.82904248  0.91708757     0.43380
O807        O  0.62767424  0.02893446  0.85761369    -0.75490
O808        O  0.63739866  0.97329614  0.84330843    -0.54400
C809        C  0.64563188  0.00177030  0.85834164     0.78240
O810        O  0.45626158  0.98170656  0.87734450    -0.60090
O811        O  0.43347164  0.02546366  0.84561426    -0.53120
C812        C  0.43303908  0.00343876  0.87054475     0.70250
O813        O  0.55990257  0.94250317  0.88658064    -0.74650
O814        O  0.58874879  0.91062161  0.84934933    -0.55220
C815        C  0.57407826  0.91433219  0.87927297     0.76250
O816        O  0.53716152  0.09116140  0.84606838    -0.59800
O817        O  0.48139095  0.08022622  0.85377127    -0.52920
C818        C  0.50925381  0.09548119  0.86270699     0.72850
Zr819      Zr  0.56717041  0.03859433  0.85392164     2.54710
O820        O  0.55760519  0.03077820  0.91624063    -0.80360
O821        O  0.59687127  0.08677054  0.88066160    -0.93780
Zr822      Zr  0.50769034  0.95750534  0.85722012     2.64680
O823        O  0.49275704  0.93504683  0.91483669    -0.98730
O824        O  0.48300952  0.90057522  0.84954784    -0.80790
O825        O  0.56479158  0.97864163  0.85628885    -0.84150
O826        O  0.50985808  0.01790833  0.85885739    -2.18860
O827        O  0.53808259  0.09513532  0.75728211    -0.67540
O828        O  0.48284166  0.09334756  0.77798182    -0.52110
C829        C  0.50946548  0.10966862  0.76629100     0.71230
O830        O  0.53408806  0.90749799  0.74286126    -0.60450
O831        O  0.58498205  0.90306240  0.77229115    -0.52430
C832        C  0.56114187  0.89086848  0.75230672     0.73030
O833        O  0.44079470  0.97448178  0.75097494    -0.71850
O834        O  0.43055676  0.02695348  0.77410505    -0.50520
C835        C  0.42081639  0.99955599  0.75883952     0.74410
O836        O  0.62506304  0.02261682  0.74323903    -0.67170
O837        O  0.63244302  0.96724354  0.76048990    -0.54370
C838        C  0.64409709  0.99626118  0.74964016     0.72800
Zr839      Zr  0.56354771  0.03769432  0.75063379     2.77540
O840        O  0.54736187  0.02855091  0.69035231    -0.97920
O841        O  0.59707228  0.08160515  0.72018415    -0.78740
Zr842      Zr  0.50209344  0.95910211  0.75478072     2.70070
O843        O  0.50329200  0.96835061  0.69212038    -0.79990
O844        O  0.46727891  0.90828158  0.74358209    -0.99080
Zr845      Zr  0.58908077  0.95693218  0.80438190     2.21500
Zr846      Zr  0.48159214  0.03835877  0.80739027     2.11130
O847        O  0.50486872  0.01964851  0.75278361    -2.47760
O848        O  0.56075137  0.97706474  0.75226303    -0.79780
O849        O  0.53974939  0.05835156  0.80312283    -0.71980
O850        O  0.53046834  0.93697453  0.80519816    -2.32940
O851        O  0.59222510  0.01836495  0.80183085    -2.29150
O852        O  0.47757398  0.97750632  0.80770199    -0.73740
H853        H  0.49983814  0.02625369  0.88015512     0.78260
H854        H  0.52926299  0.91237569  0.80659627     0.79340
H855        H  0.49183235  0.02889650  0.73350044     0.81570
H856        H  0.61550822  0.02697330  0.80083482     0.79180
H857        H  0.49936495  0.88499269  0.86144585     0.42210
H858        H  0.45194347  0.90573437  0.76412031     0.41180
H859        H  0.52301816  0.95449043  0.68393971     0.40860
H860        H  0.53980870  0.05130173  0.68185916     0.38790
H861        H  0.61193322  0.09172077  0.73833610     0.41930
H862        H  0.61427949  0.09457748  0.86333300     0.36710
H863        H  0.54952089  0.00686862  0.91922734     0.42830
H864        H  0.49221133  0.95523639  0.93014581     0.39240
H865        H  0.56956587  0.02449947  0.67820223     0.44160
H866        H  0.61048360  0.07695043  0.90007445     0.42880
H867        H  0.46839711  0.92724253  0.91347726     0.43020
H868        H  0.45173212  0.91461832  0.72417668     0.43380
O869        O  0.42096244  0.12729810  0.96899470    -0.75490
O870        O  0.46564614  0.08974850  0.97369787    -0.54400
C871        C  0.43386350  0.09738647  0.96932764     0.78240
O872        O  0.52817553  0.26090092  0.93297903    -0.60090
O873        O  0.49571496  0.30371577  0.94650746    -0.53120
C874        C  0.51139467  0.28718512  0.92321173     0.70250
O875        O  0.51596978  0.14935566  0.88562284    -0.74650
O876        O  0.50826444  0.10423600  0.92331243    -0.55220
C877        C  0.51053042  0.11772549  0.89256873     0.76250
O878        O  0.41423614  0.22722041  0.01411263    -0.59800
O879        O  0.43199420  0.27526971  0.98884750    -0.52920
C880        C  0.40684632  0.25553774  0.00018781     0.72850
Zr881      Zr  0.43595242  0.18603248  0.97538498     2.54710
O882        O  0.40819428  0.19866834  0.92016261    -0.80360
O883        O  0.37471736  0.17725778  0.98809901    -0.93780
Zr884      Zr  0.51575548  0.20258201  0.91638515     2.64680
O885        O  0.47516350  0.21311156  0.86964110    -0.98730
O886        O  0.55984910  0.21149181  0.87203368    -0.80790
O887        O  0.48020961  0.16108484  0.94360971    -0.84150
O888        O  0.47000555  0.22891440  0.94729568    -2.18860
O889        O  0.46421485  0.24065800  0.05911438    -0.67540
O890        O  0.49128833  0.28905686  0.04802971    -0.52110
C891        C  0.47759369  0.26842529  0.06986305     0.71230
O892        O  0.60968085  0.14459278  0.98517938    -0.60450
O893        O  0.57041627  0.10161492  0.97757617    -0.52430
C894        C  0.60172632  0.11324423  0.97894139     0.73030
O895        O  0.59150794  0.25128395  0.01821687    -0.71850
O896        O  0.55785710  0.28885362  0.98901030    -0.50520
C897        C  0.58780555  0.27862093  0.00064130     0.74410
O898        O  0.47890124  0.13049858  0.07816870    -0.67170
O899        O  0.50856065  0.09725731  0.03994697    -0.54370
C900        C  0.49395886  0.10289430  0.06994691     0.72800
Zr901      Zr  0.49475766  0.18640681  0.05837505     2.77540
O902        O  0.54283688  0.19308821  0.09860797    -0.97920
O903        O  0.46679705  0.18523705  0.11516369    -0.78740
Zr904      Zr  0.57579952  0.19606324  0.99834284     2.70070
O905        O  0.61289756  0.18662695  0.04853338    -0.79990
O906        O  0.62410858  0.20550279  0.95918697    -0.99080
Zr907      Zr  0.51295486  0.12681816  0.98229804     2.21500
Zr908      Zr  0.49743949  0.26238243  0.99287364     2.11130
O909        O  0.53215044  0.22605171  0.03105857    -2.47760
O910        O  0.53954547  0.15708342  0.02803562    -0.79780
O911        O  0.46179955  0.21911671  0.01946537    -0.71980
O912        O  0.54936628  0.16631471  0.95245889    -2.32940
O913        O  0.46764434  0.15222208  0.01495518    -2.29150
O914        O  0.54298161  0.23294097  0.96126248    -0.73740
H915        H  0.45596142  0.24295400  0.93223813     0.78260
H916        H  0.56605291  0.15515490  0.93776196     0.79340
H917        H  0.54176115  0.23959082  0.04953832     0.81570
H918        H  0.45175716  0.13562725  0.02476283     0.79180
H919        H  0.58200249  0.20927291  0.88467413     0.42210
H920        H  0.61577061  0.22319053  0.94274766     0.41180
H921        H  0.60713196  0.16320713  0.05678242     0.40860
H922        H  0.53240624  0.20215377  0.12010769     0.38790
H923        H  0.44190498  0.18208264  0.11006624     0.41930
H924        H  0.37397840  0.15982461  0.00695455     0.36710
H925        H  0.40217625  0.17597701  0.91068394     0.42830
H926        H  0.45655110  0.19604681  0.87350756     0.39240
H927        H  0.54939200  0.16937166  0.10488402     0.44160
H928        H  0.36509524  0.16566325  0.96751036     0.42880
H929        H  0.48735320  0.20473789  0.84876935     0.43020
H930        H  0.64182729  0.21663123  0.97374344     0.43380
O931        O  0.50548675  0.89463369  0.11927698    -0.75490
O932        O  0.56224638  0.90429084  0.12458949    -0.54400
C933        C  0.53600337  0.89186057  0.10849254     0.78240
O934        O  0.52702959  0.06220022  0.09677578    -0.60090
O935        O  0.47528081  0.07386951  0.12235696    -0.53120
C936        C  0.49837069  0.07788396  0.09802322     0.70250
O937        O  0.59921513  0.97815987  0.12563308    -0.74650
O938        O  0.61723865  0.92942846  0.14774749    -0.55220
C939        C  0.62070193  0.95383804  0.12559494     0.76250
O940        O  0.44157020  0.98004293  0.09500700    -0.59800
O941        O  0.42705946  0.02901128  0.12309344    -0.52920
C942        C  0.42515357  0.00789668  0.09769437     0.72850
Zr943      Zr  0.48172389  0.94843900  0.12717302     2.54710
O944        O  0.48376229  0.93546872  0.06542534    -0.80360
O945        O  0.42881958  0.91511144  0.13481613    -0.93780
Zr946      Zr  0.55585378  0.02035427  0.13129200     2.64680
O947        O  0.57414201  0.02198405  0.07112502    -0.98730
O948        O  0.59665375  0.06639018  0.14330412    -0.80790
O949        O  0.54158885  0.96182707  0.12802516    -0.84150
O950        O  0.49751490  0.00612071  0.12450924    -2.18860
O951        O  0.41603046  0.96920167  0.22241443    -0.67540
O952        O  0.41327257  0.02325037  0.19969897    -0.52110
C953        C  0.39934217  0.99642348  0.21359292     0.71230
O954        O  0.60072431  0.99499745  0.24811353    -0.60450
O955        O  0.60896781  0.94399528  0.22081533    -0.52430
C956        C  0.61861146  0.96833395  0.24080205     0.73030
O957        O  0.52464260  0.07890370  0.22926398    -0.71850
O958        O  0.47221105  0.08440672  0.20282212    -0.50520
C959        C  0.49816528  0.09648026  0.21953628     0.74410
O960        O  0.49834286  0.88965630  0.23695093    -0.67170
O961        O  0.55136269  0.88392415  0.21094152    -0.54370
C962        C  0.52540097  0.87217510  0.22829864     0.72800
Zr963      Zr  0.47544877  0.94830834  0.22762792     2.77540
O964        O  0.47733142  0.95962355  0.28964251    -0.97920
O965        O  0.43247574  0.90629784  0.24649505    -0.78740
Zr966      Zr  0.54508195  0.01959027  0.23215019     2.70070
O967        O  0.52540583  0.01456110  0.29215113    -0.79990
O968        O  0.58641392  0.05889531  0.25813137    -0.99080
Zr969      Zr  0.56282188  0.93631430  0.17998911     2.21500
Zr970      Zr  0.46816613  0.03181499  0.17091479     2.11130
O971        O  0.48516480  0.00860803  0.22693778    -2.47760
O972        O  0.53564160  0.95937866  0.23130056    -0.79780
O973        O  0.45406841  0.97229390  0.17474404    -0.71980
O974        O  0.57541786  0.99672621  0.18361914    -2.32940
O975        O  0.50209977  0.92351629  0.17859952    -2.29150
O976        O  0.52772982  0.04517437  0.17870421    -0.73740
H977        H  0.49098199  0.01392850  0.10169688     0.78260
H978        H  0.59986949  0.00149534  0.18499636     0.79340
H979        H  0.47239146  0.01945633  0.24538548     0.81570
H980        H  0.49628949  0.89960172  0.17747293     0.79180
H981        H  0.61476081  0.05585041  0.15799107     0.42210
H982        H  0.59198635  0.07584924  0.23960576     0.41180
H983        H  0.54310887  0.00018569  0.30365186     0.40860
H984        H  0.45334892  0.96616503  0.29564919     0.38790
H985        H  0.42463073  0.89543152  0.22474119     0.41930
H986        H  0.43559070  0.89538905  0.14960171     0.36710
H987        H  0.50157549  0.95123042  0.05578305     0.42830
H988        H  0.55322574  0.01397416  0.05875367     0.39240
H989        H  0.48038252  0.93682656  0.30062546     0.44160
H990        H  0.42446618  0.90514606  0.11167208     0.42880
H991        H  0.57666652  0.04622363  0.06398065     0.43020
H992        H  0.57317617  0.07177316  0.27571636     0.43380
O993        O  0.37182024  0.02287424  0.07676567    -0.75490
O994        O  0.41215866  0.00141782  0.03978356    -0.54400
C995        C  0.40208342  0.01301264  0.06937485     0.78240
O996        O  0.27603583  0.89759215  0.01434929    -0.60090
O997        O  0.23829367  0.91717888  0.97501789    -0.53120
C998        C  0.25304343  0.89194403  0.99190053     0.70250
O999        O  0.39348801  0.90177358  0.99609776    -0.74650
O1000       O  0.43080114  0.94604749  0.98681440    -0.55220
C1001       C  0.42432272  0.91419715  0.99115643     0.76250
O1002       O  0.26495143  0.00275407  0.07552360    -0.59800
O1003       O  0.22440208  0.97915803  0.03937269    -0.52920
C1004       C  0.23553580  0.98913001  0.06986055     0.72850
Zr1005     Zr  0.32062697  0.00372213  0.04969943     2.54710
O1006       O  0.32534846  0.96975316  0.10292642    -0.80360
O1007       O  0.30639434  0.05881227  0.07499335    -0.93780
Zr1008     Zr  0.33156023  0.91822083  0.99702305     2.64680
O1009       O  0.33996455  0.87912613  0.04596968    -0.98730
O1010       O  0.33138329  0.86910128  0.95883752    -0.80790
O1011       O  0.35933459  0.96204105  0.02752469    -0.84150
O1012       O  0.29196765  0.95852438  0.02205060    -2.18860
O1013       O  0.27171437  0.06268893  0.00201058    -0.67540
O1014       O  0.22526135  0.04231522  0.97714749    -0.52110
C1015       C  0.24240968  0.06866826  0.98889000     0.71230
O1016       O  0.37452096  0.99846031  0.88370566    -0.60450
O1017       O  0.41526362  0.99636018  0.92644333    -0.52430
C1018       C  0.40550597  0.00082212  0.89486802     0.73030
O1019       O  0.26815540  0.94838944  0.89825594    -0.71850
O1020       O  0.22740310  0.98255964  0.91802979    -0.50520
C1021       C  0.24309804  0.96829838  0.89206727     0.74410
O1022       O  0.37766126  0.07850326  0.96360444    -0.67170
O1023       O  0.42112977  0.04057991  0.97405933    -0.54370
C1024       C  0.40955190  0.07029236  0.96786577     0.72800
Zr1025     Zr  0.31915477  0.05567901  0.96331076     2.77540
O1026       O  0.30433356  0.07856731  0.90614173    -0.97920
O1027       O  0.31423355  0.11710980  0.97103720    -0.78740
Zr1028     Zr  0.32464536  0.97125459  0.90998762     2.70070
O1029       O  0.31521749  0.99123373  0.85072984    -0.79990
O1030       O  0.34466983  0.91956453  0.88169584    -0.99080
Zr1031     Zr  0.38887218  0.99115145  0.98244398     2.21500
Zr1032     Zr  0.25180470  0.98133141  0.97905762     2.11130
O1033       O  0.28665639  0.01205763  0.93541128    -2.47760
O1034       O  0.35445447  0.01542831  0.93828413    -0.79780
O1035       O  0.28685150  0.02414517  0.00477011    -0.71980
O1036       O  0.36191646  0.94612593  0.95188663    -2.32940
O1037       O  0.35424050  0.03381464  0.00810217    -2.29150
O1038       O  0.29336670  0.94204837  0.95417583    -0.73740
H1039       H  0.27973595  0.94778927  0.04114166     0.78260
H1040       H  0.37844006  0.93160260  0.94041896     0.79340
H1041       H  0.27279675  0.02316446  0.91789367     0.81570
H1042       H  0.36713988  0.05168502  0.01942485     0.79180
H1043       H  0.34351719  0.85094599  0.97208202     0.42210
H1044       H  0.33271496  0.90072913  0.89433540     0.41180
H1045       H  0.31624827  0.01648891  0.85214261     0.40860
H1046       H  0.27932884  0.08330983  0.90759343     0.38790
H1047       H  0.32036722  0.12066413  0.99570814     0.41930
H1048       H  0.31638194  0.07600402  0.05869706     0.36710
H1049       H  0.34501895  0.95419342  0.09875244     0.42830
H1050       H  0.32527646  0.88831062  0.06479913     0.39240
H1051       H  0.31546205  0.10139406  0.90479912     0.44160
H1052       H  0.32077688  0.06057123  0.09613417     0.42880
H1053       H  0.32835552  0.85761959  0.03908091     0.43020
H1054       H  0.33341178  0.92016443  0.85861725     0.43380
O1055       O  0.63663472  0.98144811  0.07608896    -0.75490
O1056       O  0.67319321  0.93932449  0.09260607    -0.54400
C1057       C  0.64561048  0.95715804  0.09670104     0.78240
O1058       O  0.68723469  0.97639646  0.89455022    -0.60090
O1059       O  0.67958484  0.03318975  0.89718223    -0.53120
C1060       C  0.67430687  0.00397779  0.88274315     0.70250
O1061       O  0.66600989  0.89986366  0.97630615    -0.74650
O1062       O  0.66755401  0.90275195  0.03491842    -0.55220
C1063       C  0.65460424  0.89210883  0.00646484     0.76250
O1064       O  0.62311089  0.06572094  0.00464551    -0.59800
O1065       O  0.65574014  0.08636749  0.95927378    -0.52920
C1066       C  0.62909647  0.08716490  0.98029631     0.72850
Zr1067     Zr  0.65135762  0.01776840  0.02817892     2.54710
O1068       O  0.59357753  0.99977534  0.01099080    -0.80360
O1069       O  0.64497846  0.05812376  0.07571926    -0.93780
Zr1070     Zr  0.67099315  0.95617564  0.95157454     2.64680
O1071       O  0.60925142  0.96522682  0.94567522    -0.98730
O1072       O  0.65582357  0.91350385  0.90852844    -0.80790
O1073       O  0.66156961  0.96176690  0.01192576    -0.84150
O1074       O  0.65771548  0.01274994  0.96732071    -2.18860
O1075       O  0.74873232  0.09671466  0.02332165    -0.67540
O1076       O  0.72780167  0.10110072  0.96797022    -0.52110
C1077       C  0.74061204  0.11376150  0.99572136     0.71230
O1078       O  0.78289951  0.91165139  0.98703493    -0.60450
O1079       O  0.74963090  0.89746443  0.03451863    -0.52430
C1080       C  0.77134282  0.89034300  0.01043441     0.73030
O1081       O  0.79105100  0.01286029  0.92527167    -0.71850
O1082       O  0.75448287  0.05726703  0.91388909    -0.50520
C1083       C  0.78274522  0.04068842  0.90915847     0.74410
O1084       O  0.78294396  0.00064535  0.07944164    -0.67170
O1085       O  0.75333347  0.95055197  0.08704630    -0.54370
C1086       C  0.77725942  0.97196538  0.09484854     0.72800
Zr1087     Zr  0.75000168  0.03645032  0.04093826     2.77540
O1088       O  0.80937366  0.05774420  0.04175829    -0.97920
O1089       O  0.73694618  0.06270403  0.09652185    -0.78740
Zr1090     Zr  0.77057669  0.97087235  0.96716996     2.70070
O1091       O  0.83107915  0.97477961  0.98400559    -0.79990
O1092       O  0.78497035  0.93852652  0.91547715    -0.99080
Zr1093     Zr  0.71199877  0.94529472  0.04191383     2.21500
Zr1094     Zr  0.70651938  0.04621173  0.95262799     2.11130
O1095       O  0.75866385  0.02900856  0.98149283    -2.47760
O1096       O  0.76122481  0.97878967  0.02645530    -0.79780
O1097       O  0.69847812  0.05268489  0.01285065    -0.71980
O1098       O  0.72095901  0.93771999  0.98080195    -2.32940
O1099       O  0.70192567  0.00270128  0.05870535    -2.29150
O1100       O  0.72049749  0.98884238  0.93671803    -0.73740
H1101       H  0.63760960  0.02097726  0.95505985     0.78260
H1102       H  0.72416114  0.91442484  0.97373170     0.79340
H1103       H  0.77766792  0.04420660  0.97597223     0.81570
H1104       H  0.69886909  0.00446622  0.08355697     0.79180
H1105       H  0.67810942  0.90281751  0.90219037     0.42210
H1106       H  0.77066778  0.94886962  0.89686514     0.41180
H1107       H  0.83145532  0.96691828  0.00856363     0.40860
H1108       H  0.81206981  0.07208261  0.02053921     0.38790
H1109       H  0.71657714  0.07725376  0.09177000     0.41930
H1110       H  0.63480462  0.04468436  0.09512686     0.36710
H1111       H  0.59226124  0.97515736  0.01720221     0.42830
H1112       H  0.60658187  0.97220652  0.92105017     0.39240
H1113       H  0.80987734  0.07417946  0.06115758     0.44160
H1114       H  0.62719631  0.07503091  0.06903841     0.42880
H1115       H  0.59913383  0.94201881  0.94735762     0.43020
H1116       H  0.80899723  0.94547697  0.90975038     0.43380
O1117       O  0.90740043  0.83582688  0.46851489    -0.75490
O1118       O  0.94365411  0.88018949  0.48098356    -0.54400
C1119       C  0.91418378  0.86772177  0.47212424     0.78240
O1120       O  0.03611555  0.75895737  0.58209460    -0.60090
O1121       O  0.02261987  0.70672284  0.56480139    -0.53120
C1122       C  0.02957964  0.72805137  0.58985205     0.70250
O1123       O  0.98483664  0.85585504  0.58602181    -0.74650
O1124       O  0.98945222  0.89484789  0.54202260    -0.55220
C1125       C  0.98569110  0.88656999  0.57398024     0.76250
O1126       O  0.94134402  0.72487478  0.46251370    -0.59800
O1127       O  0.96362543  0.69194165  0.50331522    -0.52920
C1128       C  0.93682343  0.70214475  0.48580958     0.72850
Zr1129     Zr  0.94074240  0.78404916  0.47832018     2.54710
O1130       O  0.88816795  0.77188201  0.51107534    -0.80360
O1131       O  0.90828289  0.77916432  0.42432656    -0.93780
Zr1132     Zr  0.99083262  0.79750045  0.56628278     2.64680
O1133       O  0.93537029  0.77791457  0.58920829    -0.98730
O1134       O  0.99512844  0.80015817  0.62928517    -0.80790
O1135       O  0.95896609  0.82328355  0.52151924    -0.84150
O1136       O  0.97121417  0.75664762  0.52516586    -2.18860
O1137       O  0.05419103  0.74195225  0.41502193    -0.67540
O1138       O  0.01773864  0.70364856  0.43728585    -0.52110
C1139       C  0.03378225  0.71726357  0.41052690     0.71230
O1140       O  0.09436565  0.85729572  0.48580969    -0.60450
O1141       O  0.05082622  0.89544746  0.49272604    -0.52430
C1142       C  0.08222782  0.88757381  0.48545325     0.73030
O1143       O  0.09967159  0.75142035  0.53577428    -0.71850
O1144       O  0.08466693  0.71050552  0.49913494    -0.50520
C1145       C  0.10860161  0.72855533  0.51444359     0.74410
O1146       O  0.04127667  0.85446761  0.41148925    -0.67170
O1147       O  0.00592361  0.88912211  0.44258367    -0.54370
C1148       C  0.02471595  0.88240794  0.41647967     0.72800
Zr1149     Zr  0.02815104  0.79551938  0.42733189     2.77540
O1150       O  0.06524380  0.80054060  0.37605378    -0.97920
O1151       O  0.98395157  0.79300226  0.38267742    -0.78740
Zr1152     Zr  0.07847347  0.80616912  0.51636827     2.70070
O1153       O  0.14023411  0.80772970  0.50386519    -0.79990
O1154       O  0.09851691  0.82830054  0.57179754    -0.99080
Zr1155     Zr  0.00037072  0.85878687  0.49422570     2.21500
Zr1156     Zr  0.02023527  0.72503445  0.50017725     2.11130
O1157       O  0.05909866  0.76755935  0.47324829    -2.47760
O1158       O  0.04884087  0.83167378  0.46988697    -0.79780
O1159       O  0.98981055  0.75598462  0.45480679    -0.71980
O1160       O  0.03159911  0.83590891  0.54164714    -2.32940
O1161       O  0.97891361  0.82260816  0.45014885    -2.29150
O1162       O  0.03708431  0.76911886  0.53899656    -0.73740
H1163       H  0.95585819  0.74165691  0.53795129     0.78260
H1164       H  0.04061485  0.85299509  0.55713810     0.79340
H1165       H  0.08030407  0.75895020  0.46361515     0.81570
H1166       H  0.96710145  0.83539372  0.43218782     0.79180
H1167       H  0.01896365  0.80837937  0.63369160     0.42210
H1168       H  0.09187546  0.81043185  0.58903380     0.41180
H1169       H  0.14200393  0.81192508  0.47848330     0.40860
H1170       H  0.08778409  0.79075931  0.38303858     0.38790
H1171       H  0.98949378  0.81239883  0.36682737     0.41930
H1172       H  0.92036647  0.76146792  0.41072996     0.36710
H1173       H  0.87829273  0.79451740  0.51650813     0.42830
H1174       H  0.91837553  0.78572418  0.57171084     0.39240
H1175       H  0.05564789  0.78421196  0.35907788     0.44160
H1176       H  0.91301754  0.80067391  0.41131726     0.42880
H1177       H  0.93083777  0.79269127  0.60944487     0.43020
H1178       H  0.12405422  0.82698598  0.57049896     0.43380
O1179       O  0.86909943  0.98735161  0.39813990    -0.75490
O1180       O  0.85913046  0.93079515  0.40686393    -0.54160
C1181       C  0.87650449  0.95604947  0.39372077     0.78240
O1182       O  0.89463254  0.98573906  0.56888065    -0.60090
O1183       O  0.86375452  0.03229986  0.58433349    -0.53120
C1184       C  0.89003233  0.01240118  0.58674273     0.70250
O1185       O  0.89424677  0.92333404  0.47560264    -0.74650
O1186       O  0.85599382  0.88495475  0.45802757    -0.55220
C1187       C  0.88664262  0.89268869  0.46791934     0.76250
O1188       O  0.88009306  0.06767089  0.47508016    -0.59800
O1189       O  0.85993403  0.07685544  0.53005660    -0.52920
C1190       C  0.87931277  0.08365201  0.50367003     0.72850
Zr1191     Zr  0.85863480  0.01683281  0.45082914     2.54710
O1192       O  0.92087696  0.01833614  0.44145407    -0.80360
O1193       O  0.84904462  0.06045944  0.40628390    -0.93780
Zr1194     Zr  0.87101329  0.94925050  0.52676224     2.64680
O1195       O  0.93097867  0.93569884  0.53757603    -0.98730
O1196       O  0.87029788  0.89899120  0.56484685    -0.80790
O1197       O  0.86529310  0.95947615  0.46710789    -0.84150
O1198       O  0.86854812  0.00737709  0.51063184    -2.18860
O1199       O  0.76276502  0.07416209  0.47707292    -0.67540
O1200       O  0.78766683  0.08208147  0.52994695    -0.52110
C1201       C  0.77257807  0.09340851  0.50252121     0.71230
O1202       O  0.76699536  0.88430348  0.52290393    -0.60450
O1203       O  0.77845840  0.88184231  0.46500824    -0.52430
C1204       C  0.77127929  0.86771297  0.49442720     0.73030
O1205       O  0.78007023  0.96875210  0.59749596    -0.71850
O1206       O  0.78563526  0.02606768  0.59110642    -0.50520
C1207       C  0.78252178  0.99909100  0.60993344     0.74410
O1208       O  0.74658015  0.98273715  0.40916724    -0.67170
O1209       O  0.77376644  0.93108100  0.40611218    -0.54370
C1210       C  0.75557557  0.95520001  0.39325306     0.72800
Zr1211     Zr  0.75808755  0.01202380  0.46418772     2.77540
O1212       O  0.69912690  0.00630506  0.48584480    -0.97920
O1213       O  0.72657581  0.04654454  0.42197726    -0.78740
Zr1214     Zr  0.76998207  0.94474933  0.53991973     2.70070
O1215       O  0.70782825  0.95396199  0.53823264    -0.79990
O1216       O  0.74742195  0.90567472  0.58433616    -0.99080
Zr1217     Zr  0.81382054  0.93093909  0.45218670     2.21500
Zr1218     Zr  0.81940414  0.03009343  0.53919552     2.11130
O1219       O  0.76480611  0.00395871  0.52506135    -2.47760
O1220       O  0.76265093  0.95294412  0.47928621    -0.79780
O1221       O  0.81033764  0.03975974  0.47882976    -0.71980
O1222       O  0.81995071  0.92080488  0.51305113    -2.32940
O1223       O  0.80732618  0.98960844  0.43475857    -2.29150
O1224       O  0.82284836  0.97134191  0.55647087    -0.73740
H1225       H  0.89001957  0.01849167  0.51658981     0.78260
H1226       H  0.82468354  0.89719090  0.51858676     0.79340
H1227       H  0.74604458  0.01450201  0.53759244     0.81570
H1228       H  0.80629485  0.99275363  0.40988558     0.79180
H1229       H  0.88265101  0.88122511  0.55156410     0.42210
H1230       H  0.76705953  0.90139530  0.60023271     0.41180
H1231       H  0.69877906  0.93463231  0.52449341     0.40860
H1232       H  0.69108723  0.03013313  0.48854941     0.38790
H1233       H  0.74473652  0.05627686  0.40651688     0.41930
H1234       H  0.83216421  0.05012668  0.39014357     0.36710
H1235       H  0.93002604  0.00051208  0.45737149     0.42830
H1236       H  0.94398035  0.95686607  0.53165676     0.39240
H1237       H  0.68587210  0.99750007  0.46583212     0.44160
H1238       H  0.87099018  0.06140184  0.39293929     0.42880
H1239       H  0.93191316  0.93389993  0.56319325     0.43020
H1240       H  0.73081749  0.91927613  0.59803187     0.43380
O1241       O  0.12871623  0.01790233  0.39255548    -0.75490
O1242       O  0.09299271  0.00009024  0.43635639    -0.54400
C1243       C  0.09876337  0.01109328  0.40573414     0.78240
O1244       O  0.25146956  0.91181525  0.44902022    -0.60090
O1245       O  0.28717631  0.93785107  0.48576451    -0.53120
C1246       C  0.27547431  0.90989165  0.47098469     0.70250
O1247       O  0.13789423  0.90438036  0.47123168    -0.74650
O1248       O  0.09680713  0.94452868  0.48144815    -0.55220
C1249       C  0.10682555  0.91394828  0.47784773     0.76250
O1250       O  0.24492169  0.03363499  0.39748568    -0.59800
O1251       O  0.28651922  0.99916162  0.41497622    -0.52920
C1252       C  0.26903947  0.01330193  0.38962248     0.72850
Zr1253     Zr  0.18909719  0.00926988  0.40900360     2.54710
O1254       O  0.19163414  0.96425583  0.36598777    -0.80360
O1255       O  0.18966791  0.04553238  0.35707754    -0.93780
Zr1256     Zr  0.19583804  0.92793009  0.46890373     2.64680
O1257       O  0.19008382  0.88311792  0.42570753    -0.98730
O1258       O  0.20351951  0.88364024  0.51301031    -0.80790
O1259       O  0.15884041  0.96525938  0.43854219    -0.84150
O1260       O  0.22697945  0.97110938  0.43811281    -2.18860
O1261       O  0.23587056  0.08037071  0.45331737    -0.67540
O1262       O  0.28416138  0.06525368  0.47865764    -0.52110
C1263       C  0.26411814  0.08965111  0.46659899     0.71230
O1264       O  0.14076625  0.97037318  0.57565064    -0.60450
O1265       O  0.10024600  0.98631106  0.53592268    -0.52430
C1266       C  0.10952863  0.97556851  0.56570894     0.73030
O1267       O  0.25465409  0.96498164  0.56185436    -0.71850
O1268       O  0.29093769  0.00356821  0.54006811    -0.50520
C1269       C  0.27811812  0.98704075  0.56690827     0.74410
O1270       O  0.13113176  0.08406464  0.48910629    -0.67170
O1271       O  0.09200906  0.04059047  0.48833830    -0.54370
C1272       C  0.10031754  0.07197382  0.48695981     0.72800
Zr1273     Zr  0.19082767  0.06697905  0.49299277     2.77540
O1274       O  0.20658687  0.09508532  0.54700403    -0.97920
O1275       O  0.18649713  0.12842380  0.48275138    -0.78740
Zr1276     Zr  0.19737757  0.98616528  0.55276540     2.70070
O1277       O  0.19936011  0.03357678  0.59305163    -0.79990
O1278       O  0.19907602  0.95421079  0.60756587    -0.99080
Zr1279     Zr  0.13031995  0.99449762  0.48366015     2.21500
Zr1280     Zr  0.26584732  0.00065182  0.47846608     2.11130
O1281       O  0.22952617  0.02905062  0.52166207    -2.47760
O1282       O  0.16002946  0.02619598  0.52603207    -0.79780
O1283       O  0.22358204  0.03716524  0.45104211    -0.71980
O1284       O  0.16438095  0.95384476  0.51345870    -2.32940
O1285       O  0.15719583  0.03882278  0.45106690    -2.29150
O1286       O  0.23088375  0.95844394  0.50919543    -0.73740
H1287       H  0.23931341  0.96044781  0.41944306     0.78260
H1288       H  0.15117705  0.93643231  0.52560191     0.79340
H1289       H  0.24329266  0.04246270  0.53738973     0.81570
H1290       H  0.14229995  0.05449807  0.43880106     0.79180
H1291       H  0.19385557  0.86267767  0.50249620     0.42210
H1292       H  0.21168064  0.93284322  0.60251543     0.41180
H1293       H  0.17498272  0.04076535  0.59556029     0.40860
H1294       H  0.21487097  0.11815268  0.54019390     0.38790
H1295       H  0.17788212  0.13068860  0.45861930     0.41930
H1296       H  0.17148226  0.06279842  0.36108393     0.36710
H1297       H  0.16833990  0.95364033  0.36655842     0.42830
H1298       H  0.20251123  0.89192659  0.40488310     0.39240
H1299       H  0.18418612  0.09920357  0.55875527     0.44160
H1300       H  0.18042758  0.03094503  0.33836665     0.42880
H1301       H  0.20446359  0.86398839  0.43443064     0.43020
H1302       H  0.21469774  0.96734988  0.62282986     0.43380
O1303       O  0.01846959  0.13256490  0.57316294    -0.75490
O1304       O  0.00000475  0.09136085  0.53607809    -0.54400
C1305       C  0.01221306  0.10146249  0.56493663     0.78240
O1306       O  0.94210718  0.24676332  0.46655802    -0.60090
O1307       O  0.95583980  0.29895577  0.47413844    -0.53120
C1308       C  0.93191666  0.27679852  0.47255317     0.70250
O1309       O  0.89593395  0.14039159  0.50390711    -0.74650
O1310       O  0.93621986  0.09807147  0.50026828    -0.55220
C1311       C  0.90543472  0.10926018  0.50485629     0.76250
O1312       O  0.04286009  0.23924894  0.55284485    -0.59800
O1313       O  0.00729111  0.27988286  0.53715453    -0.52920
C1314       C  0.02502300  0.26460420  0.56153570     0.72850
Zr1315     Zr  0.00809342  0.18950438  0.55007260     2.54710
O1316       O  0.96186958  0.19922245  0.59169144    -0.80360
O1317       O  0.03788202  0.19096462  0.60586062    -0.93780
Zr1318     Zr  0.92560688  0.19312793  0.49224121     2.64680
O1319       O  0.89219084  0.20982966  0.54285237    -0.98730
O1320       O  0.87146659  0.19590570  0.46081649    -0.80790
O1321       O  0.96337094  0.15777288  0.52453506    -0.84150
O1322       O  0.96911672  0.22641594  0.51961491    -2.18860
O1323       O  0.08296108  0.23813994  0.44460474    -0.67540
O1324       O  0.06255737  0.27953308  0.47786477    -0.52110
C1325       C  0.08793852  0.26348801  0.46411901     0.71230
O1326       O  0.96768658  0.12229654  0.39150003    -0.60450
O1327       O  0.98127972  0.08535548  0.43541426    -0.52430
C1328       C  0.97257687  0.09213943  0.40398740     0.73030
O1329       O  0.96270675  0.23711459  0.39681255    -0.71850
O1330       O  0.00441785  0.27350241  0.40953028    -0.50520
C1331       C  0.98587819  0.25770851  0.38631261     0.74410
O1332       O  0.08542231  0.12588578  0.47146840    -0.67170
O1333       O  0.04220935  0.08778702  0.48444729    -0.54370
C1334       C  0.07397935  0.09639264  0.48032321     0.72800
Zr1335     Zr  0.06558982  0.18274420  0.46536046     2.77540
O1336       O  0.10761320  0.17290072  0.41925491    -0.97920
O1337       O  0.11479337  0.18863426  0.50407782    -0.78740
Zr1338     Zr  0.98183833  0.18020632  0.40861673     2.70070
O1339       O  0.02904639  0.17638208  0.36686675    -0.79990
O1340       O  0.94587771  0.17692836  0.35682472    -0.99080
Zr1341     Zr  0.99105728  0.12207105  0.48402487     2.21500
Zr1342     Zr  0.00316529  0.25747886  0.47445114     2.11130
O1343       O  0.02579056  0.21525139  0.43329255    -2.47760
O1344       O  0.02339672  0.14777008  0.43838168    -0.79780
O1345       O  0.04080764  0.21977760  0.50638508    -0.71980
O1346       O  0.94887860  0.15302828  0.45269237    -2.32940
O1347       O  0.03580120  0.15399867  0.51062920    -2.29150
O1348       O  0.95890682  0.22022244  0.44839267    -0.73740
H1349       H  0.95777914  0.24169310  0.53547785     0.78260
H1350       H  0.93089912  0.13873235  0.44315552     0.79340
H1351       H  0.03737243  0.22446989  0.41302459     0.81570
H1352       H  0.05243955  0.14056775  0.52331772     0.79180
H1353       H  0.87806785  0.19206813  0.43627313     0.42210
H1354       H  0.92862501  0.19539843  0.35886979     0.41180
H1355       H  0.02323790  0.15629871  0.35251877     0.40860
H1356       H  0.09920167  0.18657248  0.39920940     0.38790
H1357       H  0.10489863  0.18598380  0.52773838     0.41930
H1358       H  0.05935829  0.17768140  0.60254028     0.36710
H1359       H  0.95814457  0.17671574  0.60317438     0.42830
H1360       H  0.90274555  0.19714786  0.56245921     0.39240
H1361       H  0.12881360  0.18494767  0.42690185     0.44160
H1362       H  0.02366705  0.17710259  0.62225429     0.42880
H1363       H  0.86955283  0.19834217  0.53967945     0.43020
H1364       H  0.96117135  0.18400391  0.33734058     0.43380
O1365       O  0.90648946  0.93538389  0.34492794    -0.75490
O1366       O  0.93434530  0.96892920  0.38392718    -0.54400
C1367       C  0.90800768  0.95142180  0.37362129     0.78240
O1368       O  0.04913138  0.90275439  0.24858746    -0.60090
O1369       O  0.01225461  0.91336904  0.20637450    -0.53120
C1370       C  0.03000800  0.89119252  0.22481856     0.70250
O1371       O  0.03914182  0.89989818  0.36113030    -0.74650
O1372       O  0.00460470  0.93327179  0.39455762    -0.55220
C1373       C  0.02382707  0.90722730  0.38939755     0.76250
O1374       O  0.93444842  0.93788851  0.23034786    -0.59800
O1375       O  0.94958654  0.97452521  0.19005340    -0.52920
C1376       C  0.92589949  0.95691948  0.20533073     0.72850
Zr1377     Zr  0.93069794  0.95516635  0.29026399     2.54710
O1378       O  0.88847511  0.90954452  0.28357526    -0.80360
O1379       O  0.87964631  0.99106428  0.28793285    -0.93780
Zr1380     Zr  0.02178706  0.91279219  0.30325299     2.64680
O1381       O  0.98309070  0.86352624  0.30874217    -0.98730
O1382       O  0.06401520  0.86687864  0.30580610    -0.80790
O1383       O  0.97169056  0.93386449  0.33058219    -0.84150
O1384       O  0.98035142  0.93200049  0.26282859    -2.18860
O1385       O  0.95879871  0.05432540  0.23110413    -0.67540
O1386       O  0.00314283  0.03968488  0.19929277    -0.52110
C1387       C  0.98347239  0.06390928  0.21173197     0.71230
O1388       O  0.07336411  0.02737477  0.35398398    -0.60450
O1389       O  0.04170127  0.99715540  0.39346371    -0.52430
C1390       C  0.06924652  0.01289225  0.38350568     0.73030
O1391       O  0.08027025  0.96522335  0.25072044    -0.71850
O1392       O  0.06313659  0.98269127  0.19892454    -0.50520
C1393       C  0.08769900  0.97599184  0.22032139     0.74410
O1394       O  0.96804718  0.07211559  0.34717035    -0.67170
O1395       O  0.97844915  0.03397952  0.39116211    -0.54370
C1396       C  0.97182744  0.06403890  0.37944239     0.72800
Zr1397     Zr  0.97505652  0.04681741  0.29005900     2.77540
O1398       O  0.01206298  0.09718940  0.28449504    -0.97920
O1399       O  0.92549934  0.08501175  0.29044822    -0.78740
Zr1400     Zr  0.06578525  0.00287340  0.29774734     2.70070
O1401       O  0.09541524  0.05317911  0.27431530    -0.79990
O1402       O  0.12451662  0.98744308  0.31404187    -0.99080
Zr1403     Zr  0.99142074  0.98254201  0.36071833     2.21500
Zr1404     Zr  0.00408580  0.97696398  0.22301936     2.11130
O1405       O  0.02418071  0.02448083  0.25926768    -2.47760
O1406       O  0.01790380  0.02625810  0.32723541    -0.79780
O1407       O  0.95553801  0.99993833  0.25580527    -0.71980
O1408       O  0.04255646  0.96012821  0.33467300    -2.32940
O1409       O  0.94784862  0.00337513  0.32320135    -2.29150
O1410       O  0.04348190  0.95655457  0.26686457    -0.73740
H1411       H  0.97518080  0.90967044  0.25367902     0.78260
H1412       H  0.06065825  0.95407952  0.35077550     0.79340
H1413       H  0.03670462  0.04236168  0.24713132     0.81570
H1414       H  0.92866615  0.01283090  0.33599815     0.79180
H1415       H  0.08673032  0.87867721  0.30639838     0.42210
H1416       H  0.12670913  0.96314729  0.30743682     0.41180
H1417       H  0.11054464  0.06090432  0.29343515     0.40860
H1418       H  0.03140770  0.09290835  0.30074306     0.38790
H1419       H  0.90768739  0.07346055  0.27630331     0.41930
H1420       H  0.88839368  0.01486277  0.28735316     0.36710
H1421       H  0.90206416  0.88976730  0.27543244     0.42830
H1422       H  0.96300589  0.86800818  0.29357749     0.39240
H1423       H  0.99870290  0.11580026  0.29538044     0.44160
H1424       H  0.86862274  0.98841466  0.31108697     0.42880
H1425       H  0.99555458  0.84438142  0.29784650     0.43020
H1426       H  0.13955118  0.99994953  0.29734808     0.43380
O1427       O  0.08861067  0.95745962  0.61954922    -0.75490
O1428       O  0.05391786  0.98741460  0.58329196    -0.54400
C1429       C  0.08232004  0.97238811  0.59065036     0.78240
O1430       O  0.98619008  0.91736551  0.74582285    -0.60090
O1431       O  0.03032534  0.93536296  0.77700164    -0.53120
C1432       C  0.01124325  0.91002730  0.76546191     0.70250
O1433       O  0.98381156  0.90436580  0.63102517    -0.74650
O1434       O  0.99414211  0.94380268  0.58817838    -0.55220
C1435       C  0.98699056  0.91355498  0.59915257     0.76250
O1436       O  0.10062278  0.96824646  0.73273426    -0.59800
O1437       O  0.08809452  0.00560803  0.77267748    -0.52920
C1438       C  0.11071751  0.99007993  0.75423478     0.72850
Zr1439     Zr  0.08434644  0.98440724  0.67503103     2.54710
O1440       O  0.13975432  0.95561763  0.66987204    -0.80360
O1441       O  0.12555599  0.03080433  0.66464148    -0.93780
Zr1442     Zr  0.00054337  0.92696021  0.68628016     2.64680
O1443       O  0.04267161  0.88121863  0.67936313    -0.98730
O1444       O  0.96024246  0.87958016  0.69439308    -0.80790
O1445       O  0.03895147  0.95410842  0.64773138    -0.84150
O1446       O  0.04718205  0.95488079  0.71478087    -2.18860
O1447       O  0.06047191  0.07905809  0.72743342    -0.67540
O1448       O  0.02706067  0.06364249  0.77115302    -0.52110
C1449       C  0.04220766  0.08794420  0.75284948     0.71230
O1450       O  0.91206984  0.02394969  0.64244244    -0.60450
O1451       O  0.94767579  0.00747228  0.59833172    -0.52430
C1452       C  0.91836342  0.01713601  0.61060239     0.73030
O1453       O  0.96488345  0.98898551  0.74952782    -0.71850
O1454       O  0.98155948  0.00109461  0.80064168    -0.50520
C1455       C  0.95631184  0.99728048  0.78005304     0.74410
O1456       O  0.03104556  0.08566000  0.61966862    -0.67170
O1457       O  0.00602809  0.04590746  0.58478425    -0.54370
C1458       C  0.01735773  0.07591149  0.59119892     0.72800
Zr1459     Zr  0.02594481  0.06610978  0.67875553     2.77540
O1460       O  0.97544889  0.10310342  0.67914628    -0.97920
O1461       O  0.05384968  0.12190704  0.67352236    -0.78740
Zr1462     Zr  0.94424435  0.00863164  0.69422636     2.70070
O1463       O  0.90851828  0.05393620  0.71672836    -0.79990
O1464       O  0.89536141  0.96992974  0.69144178    -0.99080
Zr1465     Zr  0.00462232  0.99530948  0.61912218     2.21500
Zr1466     Zr  0.02676848  0.99879973  0.75565349     2.11130
O1467       O  0.98994970  0.03897555  0.72183289    -2.47760
O1468       O  0.97938006  0.03754933  0.65348139    -0.79780
O1469       O  0.06115572  0.02711512  0.71116918    -0.71980
O1470       O  0.96541099  0.96649162  0.65632716    -2.32940
O1471       O  0.05232271  0.02535046  0.64304811    -2.29150
O1472       O  0.98023149  0.96953087  0.72398913    -0.73740
H1473       H  0.05795433  0.93468277  0.72434791     0.78260
H1474       H  0.94668560  0.95560011  0.64402853     0.79340
H1475       H  0.97879326  0.05558485  0.73641569     0.81570
H1476       H  0.06704481  0.03568598  0.62549828     0.79180
H1477       H  0.93713424  0.89039483  0.69404110     0.42210
H1478       H  0.90096736  0.95196419  0.70873428     0.41180
H1479       H  0.90762474  0.07104763  0.69759954     0.40860
H1480       H  0.96439870  0.10112022  0.70221883     0.38790
H1481       H  0.07815755  0.11687344  0.66727635     0.41930
H1482       H  0.12906489  0.03106131  0.63913744     0.36710
H1483       H  0.13465167  0.93146262  0.67605938     0.42830
H1484       H  0.06269236  0.88632834  0.69435433     0.39240
H1485       H  0.98484359  0.12661865  0.67748930     0.44160
H1486       H  0.14777556  0.02242602  0.67404540     0.42880
H1487       H  0.03155159  0.86063619  0.68967113     0.43020
H1488       H  0.87553872  0.98286614  0.70066305     0.43380
C1489       C  0.00398548  0.23960658  0.21516212     0.00360
C1490       C  0.00256327  0.21422487  0.24084688     0.00360
C1491       C  0.76201864  0.95422407  0.23019144     0.00360
C1492       C  0.78962993  0.95517715  0.25165864     0.00360
C1493       C  0.02429294  0.71680588  0.23698132     0.00360
C1494       C  0.02237338  0.74239211  0.26171502     0.00360
C1495       C  0.25022698  0.98949934  0.21284218     0.00360
C1496       C  0.23111255  0.99191535  0.24300739     0.00360
C1497       C  0.25047299  0.26768962  0.47682348     0.00360
C1498       C  0.23053315  0.23874060  0.47083998     0.00360
C1499       C  0.79230971  0.24014868  0.48772897     0.00360
C1500       C  0.76792158  0.26295926  0.49822473     0.00360
C1501       C  0.28098367  0.73633500  0.48902517     0.00360
C1502       C  0.25630409  0.76214018  0.49129662     0.00360
C1503       C  0.27285158  0.99742685  0.74622559     0.00360
C1504       C  0.25307418  0.00139875  0.71659409     0.00360
C1505       C  0.23602128  0.24168256  0.98149319     0.00360
C1506       C  0.26169672  0.21753060  0.98667960     0.00360
C1507       C  0.26095530  0.72296984  0.99002456     0.00360
C1508       C  0.28596428  0.74785431  0.98304651     0.00360
C1509       C  0.53268849  0.70579412  0.24127925     0.00360
C1510       C  0.53046307  0.72697181  0.21262804     0.00360
C1511       C  0.50070078  0.26766889  0.23507585     0.00360
C1512       C  0.50393125  0.24278986  0.21103062     0.00360
C1513       C  0.50707573  0.27934275  0.75582210     0.00360
C1514       C  0.50315941  0.25711617  0.78276735     0.00360
C1515       C  0.01897991  0.23367429  0.71201446     0.00360
C1516       C  0.01491506  0.25891071  0.73684731     0.00360
C1517       C  0.75885393  0.27693833  0.98024183     0.00360
C1518       C  0.72844364  0.25878006  0.98470410     0.00360
C1519       C  0.27490229  0.48497603  0.24871875     0.00360
C1520       C  0.24970425  0.47987438  0.22367503     0.00360
C1521       C  0.74969354  0.48891461  0.24933728     0.00360
C1522       C  0.77477237  0.49059660  0.22358212     0.00360
C1523       C  0.27711501  0.49384422  0.72507919     0.00360
C1524       C  0.25087528  0.49150009  0.74971442     0.00360
C1525       C  0.02842875  0.73529654  0.76075810     0.00360
C1526       C  0.03253083  0.76124272  0.73599027     0.00360
C1527       C  0.78887918  0.01980463  0.77711049     0.00360
C1528       C  0.81451921  0.01392258  0.75411276     0.00360
C1529       C  0.78521466  0.72529776  0.99443158     0.00360
C1530       C  0.75596717  0.74563509  0.99310572     0.00360
C1531       C  0.75307952  0.50126243  0.72506688     0.00360
C1532       C  0.77790294  0.50493753  0.75082463     0.00360
C1533       C  0.75894953  0.70275613  0.48752431     0.00360
C1534       C  0.78895273  0.72129352  0.49309639     0.00360
C1535       C  0.52806512  0.72603223  0.71429260     0.00360
C1536       C  0.53603486  0.74521092  0.74318375     0.00360
C1537       C  0.86978688  0.03773695  0.77863873    -0.26520
C1538       C  0.85090273  0.00983947  0.76561773    -0.14590
C1539       C  0.86511852  0.97688094  0.76758996     0.36040
C1540       C  0.89915524  0.97283467  0.77874087    -0.25970
C1541       C  0.91952052  0.00116258  0.78776432    -0.15210
C1542       C  0.90414460  0.03376626  0.78969686     0.37120
N1543       N  0.92307141  0.06345830  0.80063278    -0.89460
H1544       H  0.85813051  0.06286139  0.77918095     0.18240
H1545       H  0.91068529  0.94763752  0.77755741     0.18230
N1546       N  0.84445892  0.94739739  0.75957766    -0.88490
H1547       H  0.92574926  0.07993854  0.77920304     0.35610
H1548       H  0.94794115  0.05702738  0.80879637     0.40700
H1549       H  0.84382279  0.93125242  0.78140409     0.40320
H1550       H  0.85614484  0.93381861  0.73958085     0.35210
C1551       C  0.00160636  0.13976876  0.74799192    -0.26520
C1552       C  0.03518046  0.12676418  0.75377019    -0.14590
C1553       C  0.06285573  0.15045303  0.74748461     0.36040
C1554       C  0.05673441  0.18361909  0.73309478    -0.25970
C1555       C  0.02350808  0.19563539  0.72416951    -0.15210
C1556       C  0.99543906  0.17288886  0.73271811     0.37120
N1557       N  0.96016358  0.18218562  0.72598794    -0.89460
H1558       H  0.97973774  0.12314248  0.75330777     0.18240
H1559       H  0.07876135  0.20031953  0.72920430     0.18230
N1560       N  0.09811985  0.14142444  0.75480024    -0.88490
H1561       H  0.94965277  0.16439811  0.70890286     0.35610
H1562       H  0.95884321  0.20574287  0.71316838     0.40700
H1563       H  0.09946051  0.11768994  0.76738045     0.40320
H1564       H  0.10761951  0.15906452  0.77268125     0.35210
C1565       C  0.19724042  0.02957476  0.73171806    -0.26520
C1566       C  0.21504138  0.99963814  0.72255173    -0.14590
C1567       C  0.19930390  0.96763550  0.72963777     0.36040
C1568       C  0.16788042  0.96640285  0.74738985    -0.25970
C1569       C  0.14855060  0.99601009  0.75407992    -0.15210
C1570       C  0.16388686  0.02829055  0.74663178     0.37120
N1571       N  0.14632991  0.06002942  0.75243836    -0.89460
H1572       H  0.20947913  0.05423582  0.72760837     0.18240
H1573       H  0.15652031  0.94141995  0.75255582     0.18230
N1574       N  0.21482781  0.93567328  0.72021441    -0.88490
H1575       H  0.16118042  0.07410294  0.76993637     0.35610
H1576       H  0.12250074  0.05608519  0.76454328     0.40700
H1577       H  0.23780302  0.93932697  0.70651161     0.40320
H1578       H  0.19799042  0.92337332  0.70315102     0.35210
C1579       C  0.99679943  0.81259428  0.75657262    -0.26520
C1580       C  0.02930278  0.79978651  0.74634952    -0.14590
C1581       C  0.05743712  0.82368757  0.74857750     0.36040
C1582       C  0.05221257  0.85836916  0.75913828    -0.25970
C1583       C  0.01926116  0.87134779  0.76778330    -0.15210
C1584       C  0.99164402  0.84679200  0.76789177     0.37120
N1585       N  0.95757496  0.85550445  0.77985691    -0.89460
H1586       H  0.97464645  0.79558799  0.75590398     0.18240
H1587       H  0.07395730  0.87592538  0.75810064     0.18230
N1588       N  0.09175701  0.81418808  0.73915037    -0.88490
H1589       H  0.94098662  0.85551745  0.75846335     0.35610
H1590       H  0.95697688  0.87978424  0.79084620     0.40700
H1591       H  0.09931248  0.79385296  0.75514583     0.40320
H1592       H  0.09156902  0.80665901  0.71319881     0.35210
C1593       C  0.13827982  0.01281567  0.22010786    -0.26520
C1594       C  0.12474560  0.98027445  0.21349445    -0.14590
C1595       C  0.14630159  0.95142570  0.21810766     0.36040
C1596       C  0.18002613  0.95571840  0.23051727    -0.25970
C1597       C  0.19303244  0.98818033  0.23880059    -0.15210
C1598       C  0.17175865  0.01706762  0.23373520     0.37120
N1599       N  0.18358886  0.05043880  0.24360352    -0.89460
H1600       H  0.12156176  0.03479994  0.21735685     0.18240
H1601       H  0.19658834  0.93355197  0.23301742     0.18230
N1602       N  0.13427364  0.91729280  0.21135539    -0.88490
H1603       H  0.16347206  0.06813170  0.24182622     0.35610
H1604       H  0.20200666  0.05849444  0.22542891     0.40700
H1605       H  0.10951714  0.91744637  0.20055641     0.40320
H1606       H  0.13263012  0.90423229  0.23517689     0.35210
C1607       C  0.05627660  0.83291482  0.23479497    -0.26520
C1608       C  0.02643676  0.85177454  0.22516037    -0.14590
C1609       C  0.99448854  0.83309818  0.22653274     0.36040
C1610       C  0.99346878  0.79856415  0.23953501    -0.25970
C1611       C  0.02342324  0.78063224  0.25043133    -0.15210
C1612       C  0.05507854  0.79844054  0.24705038     0.37120
N1613       N  0.08649677  0.78168482  0.25665979    -0.89460
H1614       H  0.08117816  0.84576564  0.23440847     0.18240
H1615       H  0.96873052  0.78553366  0.24095828     0.18230
N1616       N  0.96243428  0.84788149  0.21529990    -0.88490
H1617       H  0.09820136  0.79588451  0.27630306     0.35610
H1618       H  0.10298545  0.78205098  0.23505884     0.40700
H1619       H  0.96601418  0.87217931  0.20453527     0.40320
H1620       H  0.94630662  0.85020863  0.23698309     0.35210
C1621       C  0.87081253  0.92818496  0.20465312    -0.26520
C1622       C  0.88840737  0.95951918  0.19965550    -0.14590
C1623       C  0.87138399  0.98995973  0.20881005     0.36040
C1624       C  0.84018593  0.98794495  0.22742434    -0.25970
C1625       C  0.82542227  0.95624932  0.23704983    -0.15210
C1626       C  0.84089030  0.92602950  0.22531637     0.37120
N1627       N  0.82831158  0.89327246  0.23734276    -0.89460
H1628       H  0.88391055  0.90469046  0.19791417     0.18240
H1629       H  0.82751783  0.01145702  0.23449527     0.18230
N1630       N  0.88560089  0.02315738  0.20101906    -0.88490
H1631       H  0.84279198  0.87348809  0.22657967     0.35610
H1632       H  0.80299275  0.88989179  0.22899728     0.40700
H1633       H  0.90781108  0.02139560  0.18567827     0.40320
H1634       H  0.89254877  0.03446236  0.22447546     0.35210
C1635       C  0.02645609  0.15623291  0.21761788    -0.26520
C1636       C  0.99873795  0.17580430  0.23116747    -0.14590
C1637       C  0.96644235  0.15896956  0.23317256     0.36040
C1638       C  0.96252752  0.12427276  0.22297501    -0.25970
C1639       C  0.99032491  0.10336027  0.21153447    -0.15210
C1640       C  0.02299697  0.12079243  0.20814226     0.37120
N1641       N  0.05362984  0.10374604  0.19638497    -0.89460
H1642       H  0.05151715  0.16847776  0.21486731     0.18240
H1643       H  0.93695399  0.11310048  0.22554735     0.18230
N1644       N  0.93696466  0.17710776  0.24574641    -0.88490
H1645       H  0.06217798  0.11646362  0.17387345     0.35610
H1646       H  0.04838917  0.07877464  0.18898804     0.40700
H1647       H  0.91795820  0.17671770  0.22648703     0.40320
H1648       H  0.92732444  0.16397669  0.26756083     0.35210
C1649       C  0.05216252  0.26534673  0.62085958    -0.26520
C1650       C  0.02159302  0.26886032  0.60096467    -0.14590
C1651       C  0.98999599  0.26327412  0.61933710     0.36040
C1652       C  0.99019907  0.24962580  0.65395133    -0.25970
C1653       C  0.02091043  0.24455490  0.67324044    -0.15210
C1654       C  0.05221761  0.25473083  0.65635128     0.37120
N1655       N  0.08483126  0.25463511  0.67405806    -0.89460
H1656       H  0.07687100  0.26955183  0.60807187     0.18240
H1657       H  0.96566385  0.24355711  0.66612663     0.18230
N1658       N  0.95710482  0.27009077  0.60353996    -0.88490
H1659       H  0.09953998  0.23463150  0.66405438     0.35610
H1660       H  0.08183025  0.25032772  0.70065618     0.40700
H1661       H  0.96048130  0.28303454  0.57994637     0.40320
H1662       H  0.94404474  0.28729917  0.61945687     0.35210
C1663       C  0.87503098  0.27708015  0.44730120    -0.26520
C1664       C  0.89499718  0.28245595  0.47700356    -0.14590
C1665       C  0.88029555  0.27685327  0.50991937     0.36040
C1666       C  0.84755433  0.26129238  0.51244935    -0.25970
C1667       C  0.82846509  0.25304986  0.48264041    -0.15210
C1668       C  0.84189523  0.26269534  0.44969910     0.37120
N1669       N  0.82342123  0.25604034  0.41835826    -0.89460
H1670       H  0.88658608  0.28081157  0.42178589     0.18240
H1671       H  0.83683305  0.25532147  0.53787013     0.18230
N1672       N  0.89986454  0.28450963  0.54054962    -0.88490
H1673       H  0.83843055  0.23965404  0.40326643     0.35610
H1674       H  0.82145023  0.27906253  0.40443871     0.40700
H1675       H  0.90405657  0.31093395  0.54071987     0.40320
H1676       H  0.88549015  0.27857877  0.56291195     0.35210
C1677       C  0.14401220  0.27271227  0.43919371    -0.26520
C1678       C  0.12445437  0.27169152  0.46979236    -0.14590
C1679       C  0.14057570  0.26104302  0.50099285     0.36040
C1680       C  0.17421113  0.24761493  0.49974294    -0.25970
C1681       C  0.19267088  0.24547432  0.46827705    -0.15210
C1682       C  0.17711262  0.25897791  0.43757880     0.37120
N1683       N  0.19371044  0.25996596  0.40418054    -0.89460
H1684       H  0.13181181  0.28073176  0.41509450     0.18240
H1685       H  0.18636588  0.23937212  0.52374623     0.18230
N1686       N  0.12288538  0.26158329  0.53390174    -0.88490
H1687       H  0.18047650  0.24325216  0.38781475     0.35610
H1688       H  0.21923056  0.25224317  0.40557545     0.40700
H1689       H  0.09912844  0.27388693  0.53148191     0.40320
H1690       H  0.13751612  0.27677408  0.55060385     0.35210
C1691       C  0.02497511  0.24260650  0.33524644    -0.26520
C1692       C  0.99338715  0.25618737  0.34742668    -0.14590
C1693       C  0.96534204  0.25637124  0.32350951     0.36040
C1694       C  0.96860788  0.24116047  0.29042339    -0.25970
C1695       C  0.99941629  0.22574965  0.27891723    -0.15210
C1696       C  0.02812999  0.22712827  0.30176016     0.37120
N1697       N  0.06014786  0.21165176  0.29147974    -0.89460
H1698       H  0.04670842  0.24166893  0.35288915     0.18240
H1699       H  0.94649878  0.24159492  0.27334119     0.18230
N1700       N  0.93274484  0.27178519  0.33201004    -0.88490
H1701       H  0.07866932  0.21435861  0.31100780     0.35610
H1702       H  0.06959874  0.22488204  0.26967677     0.40700
H1703       H  0.93363484  0.28419019  0.35589611     0.40320
H1704       H  0.91419424  0.25232796  0.33400806     0.35210
C1705       C  0.27019032  0.02558712  0.61884670    -0.26520
C1706       C  0.28457975  0.99548486  0.60511446    -0.14590
C1707       C  0.29307234  0.96934391  0.62976623     0.36040
C1708       C  0.28555835  0.97321016  0.66580719    -0.25970
C1709       C  0.26744237  0.00163975  0.67888010    -0.15210
C1710       C  0.26047194  0.02846703  0.65466560     0.37120
N1711       N  0.24220164  0.05820762  0.66608635    -0.89460
H1712       H  0.26351215  0.04597064  0.60086696     0.18240
H1713       H  0.29216899  0.95251719  0.68345393     0.18230
N1714       N  0.30857035  0.93783916  0.61902232    -0.88490
H1715       H  0.23830843  0.07525271  0.64535715     0.35610
H1716       H  0.25783389  0.07089202  0.68393789     0.40700
H1717       H  0.31441943  0.93827037  0.59249184     0.40320
H1718       H  0.29043837  0.91829508  0.62323413     0.35210
C1719       C  0.25373238  0.14637699  0.43835438    -0.26520
C1720       C  0.26825057  0.12902705  0.46720741    -0.14590
C1721       C  0.27323510  0.14954692  0.49733513     0.36040
C1722       C  0.26191050  0.18470404  0.49781953    -0.25970
C1723       C  0.24498345  0.20110725  0.46925137    -0.15210
C1724       C  0.24099931  0.18031740  0.43946036     0.37120
N1725       N  0.22229374  0.19246204  0.41001649    -0.89460
H1726       H  0.24879231  0.13200193  0.41491497     0.18240
H1727       H  0.26488430  0.19865628  0.52171364     0.18230
N1728       N  0.28939970  0.13583321  0.52797955    -0.88490
H1729       H  0.20119288  0.17615698  0.40603248     0.35610
H1730       H  0.23848381  0.19126606  0.38822611     0.40700
H1731       H  0.29617472  0.11029016  0.52459035     0.40320
H1732       H  0.27154940  0.13660044  0.54839693     0.35210
C1733       C  0.27855289  0.81407367  0.45644497    -0.26520
C1734       C  0.26678099  0.80033653  0.48837920    -0.14590
C1735       C  0.26567818  0.82338758  0.51679861     0.36040
C1736       C  0.27477579  0.85865348  0.51237894    -0.25970
C1737       C  0.28458062  0.87279152  0.47978077    -0.15210
C1738       C  0.28802477  0.84901688  0.45199914     0.37120
N1739       N  0.29922584  0.85998587  0.41794237    -0.89460
H1740       H  0.27940310  0.79766069  0.43401153     0.18240
H1741       H  0.27085303  0.87574412  0.53400599     0.18230
N1742       N  0.25406242  0.81206902  0.55036397    -0.88490
H1743       H  0.32135865  0.84601024  0.41176121     0.35610
H1744       H  0.30709380  0.88557073  0.41800623     0.40700
H1745       H  0.26962651  0.79173450  0.55843180     0.40320
H1746       H  0.22864690  0.80321683  0.54809951     0.35210
C1747       C  0.25080813  0.96859053  0.30256664    -0.26520
C1748       C  0.24717004  0.99678700  0.27946158    -0.14590
C1749       C  0.25940360  0.02887585  0.29173375     0.36040
C1750       C  0.26947107  0.03258047  0.32699911    -0.25970
C1751       C  0.27139612  0.00487197  0.35082541    -0.15210
C1752       C  0.26422956  0.97188700  0.33697442     0.37120
N1753       N  0.27045775  0.94110534  0.35663366    -0.89460
H1754       H  0.24365792  0.94339091  0.29354480     0.18240
H1755       H  0.27503010  0.05809145  0.33626252     0.18230
N1756       N  0.26127818  0.05871443  0.26968076    -0.88490
H1757       H  0.24677359  0.92921139  0.36202059     0.35610
H1758       H  0.28263052  0.94625728  0.38015251     0.40700
H1759       H  0.25611143  0.05263007  0.24395470     0.40320
H1760       H  0.28697675  0.06717271  0.26963738     0.35210
C1761       C  0.77680174  0.14586749  0.46560700    -0.26520
C1762       C  0.77051525  0.13133197  0.49860721    -0.14590
C1763       C  0.76905220  0.15340381  0.52770240     0.36040
C1764       C  0.77778647  0.18813713  0.52345768    -0.25970
C1765       C  0.78546370  0.20235328  0.49062226    -0.15210
C1766       C  0.78369473  0.18101502  0.46136340     0.37120
N1767       N  0.78845336  0.19477825  0.42714002    -0.89460
H1768       H  0.77772744  0.12966719  0.44294183     0.18240
H1769       H  0.77770720  0.20448822  0.54603435     0.18230
N1770       N  0.75851601  0.14169726  0.56175240    -0.88490
H1771       H  0.80893377  0.18178931  0.41545479     0.35610
H1772       H  0.76606979  0.18978358  0.41285215     0.40700
H1773       H  0.74757689  0.11729936  0.56069589     0.40320
H1774       H  0.73817582  0.15729804  0.56982236     0.35210
C1775       C  0.76287320  0.98609717  0.33904511    -0.26520
C1776       C  0.75363387  0.95507315  0.35543595    -0.14590
C1777       C  0.75714126  0.92411156  0.33707949     0.36040
C1778       C  0.77298514  0.92459738  0.30464578    -0.25970
C1779       C  0.78338534  0.95541833  0.28907754    -0.15210
C1780       C  0.77821155  0.98654783  0.30617661     0.37120
N1781       N  0.78961804  0.01829393  0.29070071    -0.89460
H1782       H  0.76109811  0.00990919  0.35307981     0.18240
H1783       H  0.77598669  0.90083121  0.29078265     0.18230
N1784       N  0.74438799  0.89201040  0.35038280    -0.88490
H1785       H  0.78488605  0.03870590  0.30736104     0.35610
H1786       H  0.77491410  0.02285184  0.26847710     0.40700
H1787       H  0.71853642  0.89507301  0.35772634     0.40320
H1788       H  0.75865923  0.88410403  0.37193491     0.35210
C1789       C  0.80005695  0.03418693  0.65980468    -0.26520
C1790       C  0.78620569  0.00320133  0.64774663    -0.14590
C1791       C  0.78026558  0.97595039  0.67147736     0.36040
C1792       C  0.79112631  0.97932700  0.70593371    -0.25970
C1793       C  0.80658550  0.00968001  0.71714406    -0.15210
C1794       C  0.80978817  0.03784306  0.69439220     0.37120
N1795       N  0.82075115  0.07060295  0.70706199    -0.89460
H1796       H  0.80395705  0.05564521  0.64216119     0.18240
H1797       H  0.78648850  0.95872350  0.72443152     0.18230
N1798       N  0.76298823  0.94524610  0.66073898    -0.88490
H1799       H  0.82052309  0.08899287  0.68712945     0.35610
H1800       H  0.84633663  0.06843651  0.71504748     0.40700
H1801       H  0.73767195  0.95190612  0.65414503     0.40320
H1802       H  0.76109736  0.92770653  0.68138408     0.35210
C1803       C  0.79392529  0.81478108  0.46960017    -0.26520
C1804       C  0.77354713  0.82992859  0.49553002    -0.14590
C1805       C  0.76002980  0.80891687  0.52263967     0.36040
C1806       C  0.76664549  0.77369692  0.52250003    -0.25970
C1807       C  0.78634620  0.75893429  0.49583837    -0.15210
C1808       C  0.80040699  0.77991732  0.46959611     0.37120
N1809       N  0.82055340  0.76589089  0.44205236    -0.89460
H1810       H  0.80562225  0.83006066  0.44899749     0.18240
H1811       H  0.75585735  0.75761289  0.54296688     0.18230
N1812       N  0.73909956  0.82217175  0.55009816    -0.88490
H1813       H  0.84475631  0.77782491  0.44224486     0.35610
H1814       H  0.80856037  0.77188834  0.41845104     0.40700
H1815       H  0.71848259  0.83565686  0.53913102     0.40320
H1816       H  0.75410420  0.83871333  0.56498565     0.35210
C1817       C  0.15890884  0.74165166  0.47350344    -0.26520
C1818       C  0.14710153  0.72802700  0.50567714    -0.14590
C1819       C  0.17193913  0.72522650  0.53266856     0.36040
C1820       C  0.20656743  0.73679432  0.52746550    -0.25970
C1821       C  0.21796540  0.75193682  0.49597732    -0.15210
C1822       C  0.19349798  0.75412237  0.46863455     0.37120
N1823       N  0.20327525  0.77047378  0.43642690    -0.89460
H1824       H  0.14031338  0.74528178  0.45283170     0.18240
H1825       H  0.22481602  0.73463740  0.54864712     0.18230
N1826       N  0.16189684  0.71057101  0.56565815    -0.88490
H1827       H  0.18245403  0.77077059  0.41916198     0.35610
H1828       H  0.22258632  0.75581703  0.42491539     0.40700
H1829       H  0.14493507  0.72747225  0.57773287     0.40320
H1830       H  0.18330501  0.70841621  0.58205717     0.35210
C1831       C  0.05319490  0.71701906  0.31422202    -0.26520
C1832       C  0.02330933  0.73224067  0.30027069    -0.14590
C1833       C  0.99409401  0.73440474  0.32238615     0.36040
C1834       C  0.99586642  0.72324201  0.35778482    -0.25970
C1835       C  0.02671763  0.71051933  0.37253056    -0.15210
C1836       C  0.05528940  0.70637707  0.34946659     0.37120
N1837       N  0.08754330  0.69249870  0.36138743    -0.89460
H1838       H  0.07562216  0.71391187  0.29760229     0.18240
H1839       H  0.97373935  0.72730151  0.37457105     0.18230
N1840       N  0.96259627  0.74845467  0.30916088    -0.88490
H1841       H  0.10592515  0.71219479  0.36063824     0.35610
H1842       H  0.08570566  0.68384123  0.38711915     0.40700
H1843       H  0.95638363  0.76992191  0.32380751     0.40320
H1844       H  0.94295143  0.73033192  0.31297290     0.35210
C1845       C  0.00158629  0.74163315  0.68150136    -0.26520
C1846       C  0.03313320  0.75009569  0.69777281    -0.14590
C1847       C  0.06392577  0.74042480  0.67980336     0.36040
C1848       C  0.06213187  0.72823776  0.64524384    -0.25970
C1849       C  0.03053665  0.72145620  0.62839778    -0.15210
C1850       C  0.00017381  0.72624634  0.64820233     0.37120
N1851       N  0.96743572  0.71669905  0.63400534    -0.89460
H1852       H  0.97756988  0.74676851  0.69488913     0.18240
H1853       H  0.08601393  0.72528852  0.63075030     0.18230
N1854       N  0.09755634  0.74257447  0.69539010    -0.88490
H1855       H  0.95107704  0.73773593  0.63561389     0.35610
H1856       H  0.95690353  0.69764932  0.65018268     0.40700
H1857       H  0.09541163  0.74691504  0.72192429     0.40320
H1858       H  0.10902310  0.71849690  0.69357236     0.35210
C1859       C  0.84561133  0.70645510  0.52420729    -0.26520
C1860       C  0.82566120  0.70603641  0.49350358    -0.14590
C1861       C  0.84237577  0.69445019  0.46304314     0.36040
C1862       C  0.87838108  0.68803777  0.46284190    -0.25970
C1863       C  0.89926985  0.69213147  0.49252192    -0.15210
C1864       C  0.88162239  0.69873057  0.52435800     0.37120
N1865       N  0.89932415  0.69931688  0.55708054    -0.89460
H1866       H  0.83332632  0.71398261  0.54827890     0.18240
H1867       H  0.89071585  0.68263320  0.43816421     0.18230
N1868       N  0.82356603  0.69134771  0.43129517    -0.88490
H1869       H  0.89919045  0.72441346  0.56604575     0.35610
H1870       H  0.92497622  0.69163870  0.55449728     0.40700
H1871       H  0.82601086  0.66613077  0.42292718     0.40320
H1872       H  0.83534222  0.70704134  0.41248345     0.35210
C1873       C  0.73260420  0.16940555  0.02440859    -0.26520
C1874       C  0.74400461  0.15103136  0.99556473    -0.14590
C1875       C  0.75094068  0.16844649  0.96404098     0.36040
C1876       C  0.74099077  0.20227136  0.96029061    -0.25970
C1877       C  0.73010709  0.22115171  0.98887303    -0.15210
C1878       C  0.72645135  0.20451088  0.02159363     0.37120
N1879       N  0.71613727  0.22221321  0.05220288    -0.89460
H1880       H  0.72713944  0.15627087  0.04878910     0.18240
H1881       H  0.74384769  0.21421142  0.93513940     0.18230
N1882       N  0.76827162  0.15241794  0.93553120    -0.88490
H1883       H  0.69088125  0.23082464  0.04873960     0.35610
H1884       H  0.73284151  0.24295850  0.05581204     0.40700
H1885       H  0.78010058  0.12998851  0.94428601     0.40320
H1886       H  0.78903483  0.16818200  0.92818855     0.35210
C1887       C  0.76063517  0.84134123  0.97441700    -0.26520
C1888       C  0.77607578  0.85364700  0.00470787    -0.14590
C1889       C  0.78415185  0.83040178  0.03185628     0.36040
C1890       C  0.77634786  0.79555393  0.02781797    -0.25970
C1891       C  0.76044491  0.78331477  0.99746781    -0.15210
C1892       C  0.75165063  0.80692555  0.97108693     0.37120
N1893       N  0.73280089  0.79663495  0.94109849    -0.89460
H1894       H  0.75263926  0.85912123  0.95417895     0.18240
H1895       H  0.78252473  0.77783892  0.04870424     0.18230
N1896       N  0.79964312  0.84129566  0.06383585    -0.88490
H1897       H  0.74722480  0.80334539  0.91898886     0.35610
H1898       H  0.70973925  0.81045220  0.94033937     0.40700
H1899       H  0.80534537  0.86742136  0.06303483     0.40320
H1900       H  0.82341274  0.82884707  0.06615545     0.35210
C1901       C  0.82511048  0.02355820  0.86776420    -0.26520
C1902       C  0.80555146  0.05082189  0.88012212    -0.14590
C1903       C  0.79293859  0.07466714  0.85559038     0.36040
C1904       C  0.78837005  0.06420288  0.82147948    -0.25970
C1905       C  0.79737927  0.03092480  0.81227341    -0.15210
C1906       C  0.81605717  0.01023346  0.83583865     0.37120
N1907       N  0.82281431  0.97498647  0.82918634    -0.89460
H1908       H  0.83867696  0.00692037  0.88581805     0.18240
H1909       H  0.77660440  0.08135651  0.80266518     0.18230
N1910       N  0.78293686  0.10840840  0.86518090    -0.88490
H1911       H  0.80894807  0.96028569  0.84730776     0.35610
H1912       H  0.84897838  0.97055112  0.83420599     0.40700
H1913       H  0.79120358  0.11275891  0.89044626     0.40320
H1914       H  0.75592823  0.10955523  0.86479333     0.35210
C1915       C  0.79004558  0.93241754  0.14086606    -0.26520
C1916       C  0.79537563  0.96534234  0.12707048    -0.14590
C1917       C  0.79601510  0.99343974  0.14940319     0.36040
C1918       C  0.77943108  0.99014316  0.18127523    -0.25970
C1919       C  0.76825586  0.95796601  0.19305744    -0.15210
C1920       C  0.77313075  0.92880583  0.17270520     0.37120
N1921       N  0.75912274  0.89632218  0.18348772    -0.89460
H1922       H  0.79139386  0.91059938  0.12375444     0.18240
H1923       H  0.77740379  0.01212566  0.19803007     0.18230
N1924       N  0.80963267  0.02592771  0.13790578    -0.88490
H1925       H  0.76599029  0.87729063  0.16590532     0.35610
H1926       H  0.73222217  0.89840071  0.18229159     0.40700
H1927       H  0.83613298  0.02277001  0.13361118     0.40320
H1928       H  0.80720176  0.04411129  0.15748754     0.35210
C1929       C  0.26207812  0.84067626  0.95452713    -0.26520
C1930       C  0.24832284  0.85434918  0.98537225    -0.14590
C1931       C  0.24613062  0.83201647  0.01476537     0.36040
C1932       C  0.26007689  0.79882151  0.01358909    -0.25970
C1933       C  0.27491567  0.78538323  0.98324948    -0.15210
C1934       C  0.27555136  0.80678823  0.95318756     0.37120
N1935       N  0.29122762  0.79479524  0.92174051    -0.89460
H1936       H  0.26533089  0.85754747  0.93220652     0.18240
H1937       H  0.25931599  0.78320471  0.03700195     0.18230
N1938       N  0.23120770  0.84293567  0.04706224    -0.88490
H1939       H  0.29205389  0.81431180  0.90295901     0.35610
H1940       H  0.27510851  0.77588156  0.91173154     0.40700
H1941       H  0.21986800  0.86702243  0.04452736     0.40320
H1942       H  0.25116814  0.84493771  0.06521126     0.35210
C1943       C  0.24473099  0.12428704  0.01865113    -0.26520
C1944       C  0.23356984  0.10662949  0.98875995    -0.14590
C1945       C  0.22879037  0.12698970  0.95820933     0.36040
C1946       C  0.23794728  0.16253634  0.95804524    -0.25970
C1947       C  0.25261242  0.17897108  0.98731909    -0.15210
C1948       C  0.25510791  0.15900823  0.01799860     0.37120
N1949       N  0.26887700  0.17347477  0.04894689    -0.89460
H1950       H  0.24885927  0.10988226  0.04252727     0.18240
H1951       H  0.23422036  0.17733896  0.93440608     0.18230
N1952       N  0.21438889  0.11286278  0.92712051    -0.88490
H1953       H  0.29051100  0.15924096  0.05635609     0.35610
H1954       H  0.25022408  0.17108465  0.06858531     0.40700
H1955       H  0.20991331  0.08664665  0.93002366     0.40320
H1956       H  0.23221959  0.11632970  0.90692957     0.35210
C1957       C  0.24237454  0.01085169  0.84194370    -0.26520
C1958       C  0.23725568  0.97693143  0.85399469    -0.14590
C1959       C  0.23931097  0.95060314  0.82881966     0.36040
C1960       C  0.24930698  0.95816615  0.79420926    -0.25970
C1961       C  0.25710471  0.99160492  0.78268950    -0.15210
C1962       C  0.25286508  0.01833899  0.80697571     0.37120
N1963       N  0.26201571  0.05270070  0.79696702    -0.89460
H1964       H  0.24196479  0.03129432  0.86070738     0.18240
H1965       H  0.25245105  0.93716572  0.77642695     0.18230
N1966       N  0.23261591  0.91541074  0.83780351    -0.88490
H1967       H  0.25878555  0.06923632  0.81789240     0.35610
H1968       H  0.24473231  0.06069921  0.77779512     0.40700
H1969       H  0.22290370  0.91283085  0.86307133     0.40320
H1970       H  0.25611956  0.90234354  0.83673185     0.35210
C1971       C  0.22908171  0.95328111  0.12192461    -0.26520
C1972       C  0.21762089  0.98265491  0.10378120    -0.14590
C1973       C  0.20931075  0.01155133  0.12410443     0.36040
C1974       C  0.21759934  0.01223618  0.15987955    -0.25970
C1975       C  0.23399156  0.98463150  0.17683499    -0.15210
C1976       C  0.23786690  0.95400068  0.15765802     0.37120
N1977       N  0.25186089  0.92345209  0.17306635    -0.89460
H1978       H  0.23598980  0.93082776  0.10718486     0.18240
H1979       H  0.21389933  0.03584264  0.17361305     0.18230
N1980       N  0.19595568  0.04213196  0.10820250    -0.88490
H1981       H  0.27617856  0.91938096  0.16192324     0.35610
H1982       H  0.25541823  0.92600489  0.19977979     0.40700
H1983       H  0.19053935  0.03816615  0.08193827     0.40320
H1984       H  0.21526170  0.06090514  0.10932839     0.35210
C1985       C  0.53038489  0.14989957  0.21200730    -0.26520
C1986       C  0.50014194  0.13378941  0.22408774    -0.14590
C1987       C  0.47210971  0.15397818  0.23558032     0.36040
C1988       C  0.47479751  0.18975987  0.23336771    -0.25970
C1989       C  0.50461339  0.20570008  0.21971702    -0.15210
C1990       C  0.53275180  0.18550095  0.20919641     0.37120
N1991       N  0.56306634  0.20105868  0.19412149    -0.89460
H1992       H  0.55167988  0.13448696  0.20273194     0.18240
H1993       H  0.45289915  0.20519885  0.24098955     0.18230
N1994       N  0.44089797  0.13930676  0.24978156    -0.88490
H1995       H  0.58079228  0.18251747  0.18634108     0.35610
H1996       H  0.57523638  0.21531428  0.21336303     0.40700
H1997       H  0.44274898  0.11284220  0.25284073     0.40320
H1998       H  0.42093423  0.14420634  0.23218144     0.35210
C1999       C  0.49538043  0.81688819  0.22245312    -0.26520
C2000       C  0.52503760  0.83473058  0.23326890    -0.14590
C2001       C  0.55620566  0.81651456  0.23843721     0.36040
C2002       C  0.55765616  0.78192123  0.22993304    -0.25970
C2003       C  0.52838551  0.76441366  0.21807035    -0.15210
C2004       C  0.49672763  0.78180701  0.21494510     0.37120
N2005       N  0.46636622  0.76398673  0.20333753    -0.89460
H2006       H  0.47164410  0.83077748  0.21768935     0.18240
H2007       H  0.58185713  0.76846937  0.23285704     0.18230
N2008       N  0.58679925  0.83227975  0.25226130    -0.88490
H2009       H  0.44531378  0.78060880  0.20185540     0.35610
H2010       H  0.46006278  0.74550550  0.22218130     0.40700
H2011       H  0.58183169  0.85683110  0.26137103     0.40320
H2012       H  0.60500497  0.83432276  0.23217075     0.35210
C2013       C  0.30713903  0.96826198  0.23406806    -0.26520
C2014       C  0.28838799  0.99200693  0.21426225    -0.14590
C2015       C  0.30600376  0.01813508  0.19612191     0.36040
C2016       C  0.34202925  0.01981788  0.19743082    -0.25970
C2017       C  0.36115051  0.99592112  0.21693918    -0.15210
C2018       C  0.34328592  0.97029994  0.23627407     0.37120
N2019       N  0.36168628  0.94641459  0.25794386    -0.89460
H2020       H  0.29349563  0.94796541  0.24778468     0.18240
H2021       H  0.35500163  0.03963508  0.18233053     0.18230
N2022       N  0.28736469  0.04323355  0.17647768    -0.88490
H2023       H  0.34461654  0.92906581  0.26988472     0.35610
H2024       H  0.37319464  0.96030304  0.27793518     0.40700
H2025       H  0.29380030  0.06739625  0.18593645     0.40320
H2026       H  0.29556408  0.04197128  0.15061919     0.35210
C2027       C  0.66975830  0.93483010  0.25676654    -0.26520
C2028       C  0.65486312  0.96714619  0.25166888    -0.14590
C2029       C  0.67662264  0.99590429  0.24604096     0.36040
C2030       C  0.71190310  0.99108143  0.24161414    -0.25970
C2031       C  0.72610953  0.95829081  0.24256001    -0.15210
C2032       C  0.70518488  0.93004952  0.25162482     0.37120
N2033       N  0.71919121  0.89627058  0.25341221    -0.89460
H2034       H  0.65335988  0.91262093  0.26117814     0.18240
H2035       H  0.72780821  0.01294289  0.23469182     0.18230
N2036       N  0.66359719  0.02987377  0.24150084    -0.88490
H2037       H  0.70583021  0.88104046  0.23572405     0.35610
H2038       H  0.71400862  0.88633825  0.27824236     0.40700
H2039       H  0.65003979  0.03648876  0.26396557     0.40320
H2040       H  0.64710597  0.03059831  0.22005063     0.35210
C2041       C  0.63582829  0.28734232  0.95931017    -0.26520
C2042       C  0.62171674  0.29504179  0.99206805    -0.14590
C2043       C  0.64523252  0.29936065  0.01986365     0.36040
C2044       C  0.67989457  0.28916137  0.01621372    -0.25970
C2045       C  0.69277678  0.27552899  0.98506513    -0.15210
C2046       C  0.67064643  0.27669381  0.95554724     0.37120
N2047       N  0.68174310  0.26551415  0.92185176    -0.89460
H2048       H  0.61852223  0.28455257  0.93739841     0.18240
H2049       H  0.69626819  0.29005997  0.03889608     0.18230
N2050       N  0.63358641  0.31005973  0.05353821    -0.88490
H2051       H  0.66798474  0.24335210  0.91575866     0.35610
H2052       H  0.70786228  0.25916496  0.92175435     0.40700
H2053       H  0.60755463  0.31710669  0.05263115     0.40320
H2054       H  0.64733987  0.33224895  0.05972096     0.35210
C2055       C  0.34689066  0.25658712  0.02400822    -0.26520
C2056       C  0.36839751  0.25972455  0.99441487    -0.14590
C2057       C  0.35333736  0.25052022  0.96217259     0.36040
C2058       C  0.32035225  0.23425399  0.96115175    -0.25970
C2059       C  0.29929784  0.23003288  0.99095175    -0.15210
C2060       C  0.31261905  0.24356987  0.02258049     0.37120
N2061       N  0.29232874  0.24511123  0.05387361    -0.89460
H2062       H  0.35746835  0.26309079  0.04916433     0.18240
H2063       H  0.31057271  0.22570129  0.93636726     0.18230
N2064       N  0.37114866  0.25663088  0.92990777    -0.88490
H2065       H  0.30355336  0.22882821  0.07232912     0.35610
H2066       H  0.26695639  0.23696555  0.04995182     0.40700
H2067       H  0.39416678  0.26995004  0.93412143     0.40320
H2068       H  0.35573752  0.27289447  0.91484943     0.35210
C2069       C  0.53810946  0.29080814  0.86708240    -0.26520
C2070       C  0.50770189  0.29367859  0.88635374    -0.14590
C2071       C  0.47535236  0.28986851  0.87026921     0.36040
C2072       C  0.47433478  0.27794170  0.83603943    -0.25970
C2073       C  0.50509834  0.27047897  0.81834655    -0.15210
C2074       C  0.53720524  0.27896271  0.83327757     0.37120
N2075       N  0.56908553  0.27448036  0.81489905    -0.89460
H2076       H  0.56299270  0.29425578  0.87956552     0.18240
H2077       H  0.44969251  0.27277641  0.82380888     0.18230
N2078       N  0.44402311  0.29491254  0.88965642    -0.88490
H2079       H  0.58229873  0.29785221  0.81465565     0.35610
H2080       H  0.58436193  0.25729942  0.82897415     0.40700
H2081       H  0.44296751  0.32075397  0.89621616     0.40320
H2082       H  0.42245833  0.29003624  0.87411295     0.35210
C2083       C  0.46354112  0.25069475  0.16281391    -0.26520
C2084       C  0.49778114  0.25180704  0.17437346    -0.14590
C2085       C  0.52393415  0.26571931  0.15284952     0.36040
C2086       C  0.51569277  0.27604853  0.11909865    -0.25970
C2087       C  0.48186135  0.27256794  0.10691015    -0.15210
C2088       C  0.45505909  0.26208262  0.12961027     0.37120
N2089       N  0.41927599  0.26226193  0.11950252    -0.89460
H2090       H  0.44320834  0.24137681  0.17997920     0.18240
H2091       H  0.53631950  0.28391314  0.10154300     0.18230
N2092       N  0.55899221  0.26800454  0.16445577    -0.88490
H2093       H  0.41072519  0.23691582  0.11825974     0.35610
H2094       H  0.41603209  0.27332440  0.09489414     0.40700
H2095       H  0.56723752  0.29332678  0.16129792     0.40320
H2096       H  0.57419387  0.25324300  0.14788515     0.35210
C2097       C  0.73538748  0.03288748  0.74168005    -0.26520
C2098       C  0.75170906  0.01448004  0.76860775    -0.14590
C2099       C  0.73289041  0.98941209  0.78704884     0.36040
C2100       C  0.69878571  0.98260103  0.77818791    -0.25970
C2101       C  0.68200953  0.00091302  0.75158402    -0.15210
C2102       C  0.70086835  0.02615998  0.73275949     0.37120
N2103       N  0.68616091  0.04470900  0.70416570    -0.89460
H2104       H  0.74937375  0.05274565  0.72769608     0.18240
H2105       H  0.68501354  0.96354046  0.79355901     0.18230
N2106       N  0.74828024  0.97069038  0.81511530    -0.88490
H2107       H  0.66614242  0.06002576  0.71329903     0.35610
H2108       H  0.67615622  0.02714722  0.68649159     0.40700
H2109       H  0.73377102  0.97497801  0.83761334     0.40320
H2110       H  0.74690961  0.94462605  0.80946303     0.35210
C2111       C  0.32811607  0.96732520  0.75657652    -0.26520
C2112       C  0.31105927  0.99646788  0.74416457    -0.14590
C2113       C  0.33047414  0.02539229  0.73408988     0.36040
C2114       C  0.36655093  0.02494432  0.73723987    -0.25970
C2115       C  0.38360488  0.99638960  0.75136457    -0.15210
C2116       C  0.36389784  0.96718887  0.76163500     0.37120
N2117       N  0.37840027  0.93795632  0.77933028    -0.89460
H2118       H  0.31330436  0.94499352  0.76447711     0.18240
H2119       H  0.38122278  0.04760605  0.72990978     0.18230
N2120       N  0.31356749  0.05581021  0.72226919    -0.88490
H2121       H  0.36520851  0.93493231  0.80295173     0.35610
H2122       H  0.40400997  0.94188812  0.78645468     0.40700
H2123       H  0.32313302  0.06191771  0.69749767     0.40320
H2124       H  0.32027253  0.07568293  0.73895190     0.35210
C2125       C  0.47690308  0.16486745  0.76143540    -0.26520
C2126       C  0.50836566  0.14767609  0.76703562    -0.14590
C2127       C  0.53729682  0.16690618  0.77831049     0.36040
C2128       C  0.53403928  0.20177248  0.78418864    -0.25970
C2129       C  0.50316289  0.21921907  0.77782169    -0.15210
C2130       C  0.47400953  0.20042115  0.76625625     0.37120
N2131       N  0.44095232  0.21607430  0.76039848    -0.89460
H2132       H  0.45424347  0.15051462  0.75359086     0.18240
H2133       H  0.55644152  0.21530402  0.79348066     0.18230
N2134       N  0.57035085  0.15189105  0.78507164    -0.88490
H2135       H  0.43521424  0.21373854  0.73398719     0.35610
H2136       H  0.44154165  0.24216529  0.76574965     0.40700
H2137       H  0.58012861  0.14197940  0.76195469     0.40320
H2138       H  0.56755836  0.13238675  0.80361210     0.35210
C2139       C  0.53206177  0.84156901  0.72427397    -0.26520
C2140       C  0.56090734  0.85387570  0.74279041    -0.14590
C2141       C  0.58337093  0.82981314  0.75814642     0.36040
C2142       C  0.57494905  0.79476662  0.75688610    -0.25970
C2143       C  0.54447151  0.78277043  0.74096591    -0.15210
C2144       C  0.52219358  0.80714461  0.72539245     0.37120
N2145       N  0.48806043  0.79882234  0.71329756    -0.89460
H2146       H  0.51434086  0.85928704  0.71196310     0.18240
H2147       H  0.59182576  0.77705490  0.76987666     0.18230
N2148       N  0.61385214  0.84089523  0.77619438    -0.88490
H2149       H  0.47061030  0.81508722  0.72565771     0.35610
H2150       H  0.48074121  0.77466977  0.72206382     0.40700
H2151       H  0.63044656  0.85211876  0.75778068     0.40320
H2152       H  0.62706114  0.82001810  0.78683982     0.35210
C2153       C  0.37415119  0.71526889  0.94526491    -0.26520
C2154       C  0.39733848  0.71973406  0.97318811    -0.14590
C2155       C  0.38259291  0.73171314  0.00475964     0.36040
C2156       C  0.34779831  0.74356974  0.00568121    -0.25970
C2157       C  0.32446169  0.73858141  0.97800941    -0.15210
C2158       C  0.33820817  0.72267852  0.94773020     0.37120
N2159       N  0.31694663  0.71412546  0.91853925    -0.89460
H2160       H  0.38432649  0.70659570  0.92061398     0.18240
H2161       H  0.33812593  0.75460397  0.02951958     0.18230
N2162       N  0.40253986  0.73353925  0.03612725    -0.88490
H2163       H  0.32462324  0.72965217  0.89757420     0.35610
H2164       H  0.29099752  0.71915839  0.92338149     0.40700
H2165       H  0.42458845  0.71846221  0.03377141     0.40320
H2166       H  0.38822628  0.72136956  0.05582930     0.35210
C2167       C  0.66406178  0.71217048  0.96457141    -0.26520
C2168       C  0.64767897  0.70615209  0.99676442    -0.14590
C2169       C  0.66876544  0.70830126  0.02688777     0.36040
C2170       C  0.70335182  0.72079038  0.02462239    -0.25970
C2171       C  0.71887078  0.73026377  0.99274786    -0.15210
C2172       C  0.69909442  0.72349641  0.96204608     0.37120
N2173       N  0.71291302  0.72867150  0.92771311    -0.89460
H2174       H  0.64885266  0.71053821  0.94103916     0.18240
H2175       H  0.71810031  0.72410557  0.04825082     0.18230
N2176       N  0.65389961  0.70034769  0.06033193    -0.88490
H2177       H  0.71199491  0.70520113  0.91499081     0.35610
H2178       H  0.73883664  0.73582257  0.92862326     0.40700
H2179       H  0.64740804  0.67436666  0.06050276     0.40320
H2180       H  0.67212817  0.70376162  0.08002263     0.35210
C2181       C  0.55511983  0.70907735  0.11679633    -0.26520
C2182       C  0.52366441  0.69729773  0.10280684    -0.14590
C2183       C  0.49631002  0.69014282  0.12662593     0.36040
C2184       C  0.49972749  0.69817417  0.16221025    -0.25970
C2185       C  0.52970983  0.71387251  0.17536045    -0.15210
C2186       C  0.55790641  0.71893783  0.15220347     0.37120
N2187       N  0.58799489  0.73731812  0.16365935    -0.89460
H2188       H  0.57593436  0.71568970  0.09896460     0.18240
H2189       H  0.47772904  0.69410385  0.17926175     0.18230
N2190       N  0.46374779  0.67666976  0.11500778    -0.88490
H2191       H  0.60621431  0.73950035  0.14359680     0.35610
H2192       H  0.59964604  0.72330000  0.18356612     0.40700
H2193       H  0.46471901  0.67063338  0.08862444     0.40320
H2194       H  0.44518495  0.69578741  0.11795565     0.35210
C2195       C  0.56053003  0.70329145  0.83094357    -0.26520
C2196       C  0.53170146  0.71129100  0.85173101    -0.14590
C2197       C  0.50242363  0.72512257  0.83510454     0.36040
C2198       C  0.50402251  0.73472313  0.79957909    -0.25970
C2199       C  0.53415160  0.72984759  0.77960636    -0.15210
C2200       C  0.56204765  0.71196297  0.79517042     0.37120
N2201       N  0.59187468  0.70255623  0.77502385    -0.89460
H2202       H  0.58328478  0.69282984  0.84343762     0.18240
H2203       H  0.48199280  0.74732780  0.78785788     0.18230
N2204       N  0.47170826  0.73155741  0.85483510    -0.88490
H2205       H  0.60951225  0.68896505  0.79031549     0.35610
H2206       H  0.60473616  0.72440102  0.76616690     0.40700
H2207       H  0.45150695  0.71767183  0.84366521     0.40320
H2208       H  0.46566666  0.75746003  0.85233650     0.35210
C2209       C  0.87367870  0.76314070  0.96061100    -0.26520
C2210       C  0.89534736  0.76420639  0.99020419    -0.14590
C2211       C  0.87853734  0.75655849  0.02258956     0.36040
C2212       C  0.84350643  0.74381812  0.02341850    -0.25970
C2213       C  0.82295265  0.74012509  0.99308976    -0.15210
C2214       C  0.83834980  0.75231452  0.96168142     0.37120
N2215       N  0.81852089  0.75272681  0.93022295    -0.89460
H2216       H  0.88515853  0.76923925  0.93554288     0.18240
H2217       H  0.83223236  0.73672696  0.04829573     0.18230
N2218       N  0.89567999  0.76177749  0.05518950    -0.88490
H2219       H  0.83366294  0.76089844  0.90912066     0.35610
H2220       H  0.79913565  0.77089635  0.93304130     0.40700
H2221       H  0.92044189  0.77189656  0.05155800     0.40320
H2222       H  0.89804508  0.73826919  0.06801349     0.35210
C2223       C  0.16494418  0.75584540  0.97658472    -0.26520
C2224       C  0.15105221  0.75477030  0.01061595    -0.14590
C2225       C  0.17477455  0.74521896  0.03756959     0.36040
C2226       C  0.20881548  0.73379930  0.02968089    -0.25970
C2227       C  0.22236000  0.73343533  0.99566905    -0.15210
C2228       C  0.19955765  0.74521048  0.96876581     0.37120
N2229       N  0.20986118  0.74533160  0.93287283    -0.89460
H2230       H  0.14793871  0.76246533  0.95525250     0.18240
H2231       H  0.22546286  0.72600957  0.05091368     0.18230
N2232       N  0.16520058  0.74660448  0.07372082    -0.88490
H2233       H  0.19315040  0.72886632  0.91972137     0.35610
H2234       H  0.23442964  0.73499084  0.92999663     0.40700
H2235       H  0.14157390  0.75897766  0.07696235     0.40320
H2236       H  0.18322403  0.76231332  0.08608400     0.35210
C2237       C  0.99486365  0.75391323  0.81495362    -0.26520
C2238       C  0.02677859  0.74518113  0.79959201    -0.14590
C2239       C  0.05678762  0.75035939  0.82058002     0.36040
C2240       C  0.05361146  0.76137974  0.85579239    -0.25970
C2241       C  0.02128362  0.76773330  0.87159820    -0.15210
C2242       C  0.99181754  0.76543923  0.84961380     0.37120
N2243       N  0.95763732  0.77264741  0.86242622    -0.89460
H2244       H  0.97138790  0.75205359  0.80014810     0.18240
H2245       H  0.07660620  0.76224616  0.87175029     0.18230
N2246       N  0.09093570  0.74332212  0.80775426    -0.88490
H2247       H  0.94756239  0.79238410  0.84701174     0.35610
H2248       H  0.95849958  0.78221594  0.88765886     0.40700
H2249       H  0.09024266  0.73424547  0.78239748     0.40320
H2250       H  0.10110975  0.72351503  0.82299655     0.35210
C2251       C  0.05052168  0.74509185  0.14224197    -0.26520
C2252       C  0.01862904  0.75612212  0.12842206    -0.14590
C2253       C  0.98972298  0.75536773  0.15157682     0.36040
C2254       C  0.99220693  0.73991206  0.18482586    -0.25970
C2255       C  0.02356307  0.72777797  0.19847358    -0.15210
C2256       C  0.05353972  0.73206334  0.17696266     0.37120
N2257       N  0.08747927  0.72357866  0.18920118    -0.89460
H2258       H  0.07304808  0.74484908  0.12541051     0.18240
H2259       H  0.96917583  0.73861894  0.20086174     0.18230
N2260       N  0.95663753  0.76887425  0.14148298    -0.88490
H2261       H  0.09577350  0.70209743  0.17561076     0.35610
H2262       H  0.08719023  0.71718171  0.21556601     0.40700
H2263       H  0.95831591  0.78181162  0.11763349     0.40320
H2264       H  0.94996310  0.78753783  0.15954905     0.35210
C2265       C  0.83947681  0.22423382  0.94844666    -0.26520
C2266       C  0.86006726  0.21905823  0.97853427    -0.14590
C2267       C  0.84402768  0.22973140  0.01016813     0.36040
C2268       C  0.81181110  0.24804415  0.01012471    -0.25970
C2269       C  0.79475115  0.25833369  0.97914190    -0.15210
C2270       C  0.81005289  0.24597958  0.94785622     0.37120
N2271       N  0.79928178  0.25810252  0.91444069    -0.89460
H2272       H  0.85070290  0.21765164  0.92353046     0.18240
H2273       H  0.80065901  0.25541800  0.03478131     0.18230
N2274       N  0.86079239  0.22395550  0.04292899    -0.88490
H2275       H  0.80598789  0.28393790  0.91266114     0.35610
H2276       H  0.77263096  0.25550640  0.91179927     0.40700
H2277       H  0.88359869  0.21014658  0.03941334     0.40320
H2278       H  0.84443947  0.20841550  0.05804013     0.35210
C2279       C  0.03925312  0.24063686  0.79677545    -0.26520
C2280       C  0.01041676  0.24708918  0.77507817    -0.14590
C2281       C  0.97792028  0.23542013  0.78766603     0.36040
C2282       C  0.97496069  0.21828121  0.82028272    -0.25970
C2283       C  0.00270554  0.21578981  0.84403779    -0.15210
C2284       C  0.03563399  0.22607342  0.83106849     0.37120
N2285       N  0.06504471  0.22377849  0.85360859    -0.89460
H2286       H  0.06470020  0.24777183  0.78725261     0.18240
H2287       H  0.94927442  0.21166350  0.82963669     0.18230
N2288       N  0.94723392  0.24289397  0.76828155    -0.88490
H2289       H  0.08726466  0.23278149  0.84085316     0.35610
H2290       H  0.06910892  0.19788280  0.85914516     0.40700
H2291       H  0.94169989  0.26858178  0.77273820     0.40320
H2292       H  0.92615587  0.22905957  0.77826076     0.35210
C2293       C  0.14370225  0.21638301  0.94734414    -0.26520
C2294       C  0.12664274  0.20266510  0.97706031    -0.14590
C2295       C  0.14797433  0.19877592  0.00711752     0.36040
C2296       C  0.18228915  0.21223128  0.00803627    -0.25970
C2297       C  0.19775853  0.22954260  0.97948203    -0.15210
C2298       C  0.17810127  0.23015162  0.94839991     0.37120
N2299       N  0.19271727  0.24505793  0.91758662    -0.89460
H2300       H  0.12911746  0.21922155  0.92357079     0.18240
H2301       H  0.19693499  0.20954478  0.03186085     0.18230
N2302       N  0.13442183  0.18329519  0.03837675    -0.88490
H2303       H  0.17668547  0.26503538  0.90947128     0.35610
H2304       H  0.19270740  0.22649396  0.89823434     0.40700
H2305       H  0.10949267  0.17370491  0.03433669     0.40320
H2306       H  0.13253172  0.20238095  0.05710854     0.35210
C2307       C  0.96894823  0.21752029  0.16317769    -0.26520
C2308       C  0.00079197  0.22915501  0.17655112    -0.14590
C2309       C  0.02954373  0.22765388  0.15365014     0.36040
C2310       C  0.02553174  0.21735272  0.11819363    -0.25970
C2311       C  0.99292742  0.20887852  0.10391372    -0.15210
C2312       C  0.96463593  0.20776057  0.12789643     0.37120
N2313       N  0.93047182  0.19808316  0.11694649    -0.89460
H2314       H  0.94665428  0.21652137  0.18022848     0.18240
H2315       H  0.04783255  0.21823050  0.10112501     0.18230
N2316       N  0.06297519  0.23729932  0.16609644    -0.88490
H2317       H  0.92305324  0.17666202  0.13172728     0.35610
H2318       H  0.93050981  0.19012911  0.09111678     0.40700
H2319       H  0.07959402  0.21659117  0.16267017     0.40320
H2320       H  0.07207104  0.25762295  0.15068403     0.35210
C2321       C  0.83211591  0.51010720  0.25322723    -0.26520
C2322       C  0.81323750  0.48558718  0.23365693    -0.14590
C2323       C  0.82924148  0.45355808  0.22914197     0.36040
C2324       C  0.86271294  0.44720496  0.24283846    -0.25970
C2325       C  0.88325910  0.47243273  0.25937830    -0.15210
C2326       C  0.86677739  0.50416863  0.26554918     0.37120
N2327       N  0.88521307  0.53058226  0.28343561    -0.89460
H2328       H  0.81992581  0.53432288  0.25860361     0.18240
H2329       H  0.87396910  0.42231552  0.23834116     0.18230
N2330       N  0.81170284  0.42734791  0.20996204    -0.88490
H2331       H  0.86951888  0.55205928  0.28636678     0.35610
H2332       H  0.90601367  0.53828914  0.26777970     0.40700
H2333       H  0.78970073  0.41993108  0.22396552     0.40320
H2334       H  0.82709961  0.40556069  0.20791324     0.35210
C2335       C  0.19211300  0.50805115  0.24149518    -0.26520
C2336       C  0.21134259  0.47779331  0.23586958    -0.14590
C2337       C  0.19551614  0.44689053  0.24829482     0.36040
C2338       C  0.16210640  0.44699805  0.26349046    -0.25970
C2339       C  0.14135119  0.47654328  0.26587585    -0.15210
C2340       C  0.15800343  0.50784420  0.25626421     0.37120
N2341       N  0.14075823  0.53994641  0.26039500    -0.89460
H2342       H  0.20368797  0.53236271  0.23421304     0.18240
H2343       H  0.15051221  0.42246565  0.27014497     0.18230
N2344       N  0.21209881  0.41431601  0.24598275    -0.88490
H2345       H  0.15547298  0.55456975  0.27753348     0.35610
H2346       H  0.11671859  0.53625787  0.27235940     0.40700
H2347       H  0.23802468  0.41701850  0.23971971     0.40320
H2348       H  0.20010426  0.40070366  0.22609087     0.35210
C2349       C  0.98768931  0.62962613  0.27245431    -0.26520
C2350       C  0.01581548  0.60651083  0.27090057    -0.14590
C2351       C  0.04796223  0.62102630  0.26028428     0.36040
C2352       C  0.05050002  0.65633000  0.24946716    -0.25970
C2353       C  0.02147554  0.67844876  0.24827382    -0.15210
C2354       C  0.98987970  0.66438513  0.26085979     0.37120
N2355       N  0.95932872  0.68510499  0.26044345    -0.89460
H2356       H  0.96246927  0.61934495  0.27933323     0.18240
H2357       H  0.07538914  0.66626273  0.24137375     0.18230
N2358       N  0.07771134  0.59931755  0.25854091    -0.88490
H2359       H  0.93835720  0.67176246  0.27129908     0.35610
H2360       H  0.95307011  0.68982214  0.23444039     0.40700
H2361       H  0.08319439  0.59117371  0.28389556     0.40320
H2362       H  0.09930039  0.61315544  0.24977499     0.35210
C2363       C  0.97000887  0.33070914  0.23776262    -0.26520
C2364       C  0.99816167  0.34835377  0.25345030    -0.14590
C2365       C  0.02868731  0.32833531  0.25804946     0.36040
C2366       C  0.03048271  0.29401106  0.24476480    -0.25970
C2367       C  0.00299390  0.27803356  0.22620995    -0.15210
C2368       C  0.97229950  0.29734206  0.22332854     0.37120
N2369       N  0.94324015  0.28338213  0.20498848    -0.89460
H2370       H  0.94586561  0.34428121  0.23441557     0.18240
H2371       H  0.05404674  0.27975859  0.24877786     0.18230
N2372       N  0.05822434  0.34138437  0.27623569    -0.88490
H2373       H  0.92304190  0.30101409  0.20369268     0.35610
H2374       H  0.93383302  0.26243699  0.21921901     0.40700
H2375       H  0.05407172  0.36633735  0.28448149     0.40320
H2376       H  0.07923748  0.34199349  0.25908475     0.35210
C2377       C  0.27242201  0.46326039  0.84599940    -0.26520
C2378       C  0.28554525  0.49358299  0.86058461    -0.14590
C2379       C  0.28735003  0.52248326  0.83811820     0.36040
C2380       C  0.27563582  0.52103049  0.80318486    -0.25970
C2381       C  0.26062642  0.49136415  0.78886153    -0.15210
C2382       C  0.25972007  0.46174079  0.81113723     0.37120
N2383       N  0.24472770  0.43000474  0.80007901    -0.89460
H2384       H  0.26983748  0.44078994  0.86250330     0.18240
H2385       H  0.27818017  0.54379879  0.78716013     0.18230
N2386       N  0.30026514  0.55419421  0.85119318    -0.88490
H2387       H  0.26182391  0.41029359  0.80639363     0.35610
H2388       H  0.24300722  0.42964598  0.77313413     0.40700
H2389       H  0.28085571  0.57253962  0.84842784     0.40320
H2390       H  0.32126667  0.56180445  0.83569900     0.35210
C2391       C  0.28507681  0.44343383  0.13592942    -0.26520
C2392       C  0.28510931  0.47155589  0.11276072    -0.14590
C2393       C  0.27516828  0.50348045  0.12710324     0.36040
C2394       C  0.26264737  0.50537793  0.16236245    -0.25970
C2395       C  0.26072109  0.47641939  0.18486510    -0.15210
C2396       C  0.27416963  0.44558156  0.17108610     0.37120
N2397       N  0.27696919  0.41565754  0.19238852    -0.89460
H2398       H  0.29253913  0.41862758  0.12616296     0.18240
H2399       H  0.25430819  0.52977581  0.17236531     0.18230
N2400       N  0.27553609  0.53352703  0.10537102    -0.88490
H2401       H  0.30277979  0.40780042  0.19197985     0.35610
H2402       H  0.26207016  0.39632119  0.18119324     0.40700
H2403       H  0.26689631  0.55470081  0.11923702     0.40320
H2404       H  0.30126357  0.53851235  0.09848326     0.35210
C2405       C  0.30204388  0.63157681  0.00513567    -0.26520
C2406       C  0.27840669  0.61005233  0.98762465    -0.14590
C2407       C  0.24859404  0.62813342  0.97428522     0.36040
C2408       C  0.24823007  0.66385419  0.97035978    -0.25970
C2409       C  0.26991090  0.68467471  0.98936835    -0.15210
C2410       C  0.29632921  0.66770109  0.00885791     0.37120
N2411       N  0.31485539  0.68598022  0.03502123    -0.89460
H2412       H  0.32245551  0.61955160  0.02003626     0.18240
H2413       H  0.22643019  0.67541353  0.95714989     0.18230
N2414       N  0.21535212  0.61267500  0.97103384    -0.88490
H2415       H  0.33246547  0.67000034  0.04772799     0.35610
H2416       H  0.29692540  0.69378775  0.05369634     0.40700
H2417       H  0.19817103  0.62504152  0.98767359     0.40320
H2418       H  0.20618871  0.61875145  0.94612806     0.35210
C2419       C  0.27685888  0.32771863  0.94918720    -0.26520
C2420       C  0.27789665  0.34889012  0.97891335    -0.14590
C2421       C  0.26539832  0.33340002  0.01038413     0.36040
C2422       C  0.24984651  0.29995912  0.01013264    -0.25970
C2423       C  0.24707298  0.27994362  0.97968587    -0.15210
C2424       C  0.26190827  0.29443297  0.94919023     0.37120
N2425       N  0.26132307  0.27571587  0.91743178    -0.89460
H2426       H  0.28573993  0.33821259  0.92450621     0.18240
H2427       H  0.23975121  0.28953105  0.03430785     0.18230
N2428       N  0.26579256  0.35140461  0.04270051    -0.88490
H2429       H  0.28666376  0.27404316  0.90810398     0.35610
H2430       H  0.24732342  0.29000844  0.89921571     0.40700
H2431       H  0.27865209  0.37476458  0.04000388     0.40320
H2432       H  0.28043402  0.33695901  0.06025676     0.35210
C2433       C  0.16570124  0.52782528  0.71032484    -0.26520
C2434       C  0.14404372  0.49885615  0.70610818    -0.14590
C2435       C  0.15949116  0.46678592  0.71361370     0.36040
C2436       C  0.19293203  0.46499467  0.72907307    -0.25970
C2437       C  0.21301903  0.49441889  0.73690388    -0.15210
C2438       C  0.19880166  0.52632308  0.72599160     0.37120
N2439       N  0.21619273  0.55830673  0.73187367    -0.89460
H2440       H  0.15485452  0.55292358  0.70535849     0.18240
H2441       H  0.20281923  0.43991713  0.73485624     0.18230
N2442       N  0.14222534  0.43537624  0.70523335    -0.88490
H2443       H  0.21998945  0.57037665  0.70777837     0.35610
H2444       H  0.24056598  0.55484242  0.74269163     0.40700
H2445       H  0.11799707  0.44015596  0.69435917     0.40320
H2446       H  0.13848514  0.42122825  0.72808066     0.35210
C2447       C  0.98421506  0.34840566  0.70150519    -0.26520
C2448       C  0.01373195  0.36998698  0.70347769    -0.14590
C2449       C  0.04482104  0.35324691  0.71407046     0.36040
C2450       C  0.04457454  0.31787394  0.72481029    -0.25970
C2451       C  0.01410287  0.29745704  0.72570772    -0.15210
C2452       C  0.98392898  0.31346714  0.71249447     0.37120
N2453       N  0.95202394  0.29490148  0.71119764    -0.89460
H2454       H  0.95972757  0.35981120  0.69429985     0.18240
H2455       H  0.06864805  0.30634902  0.73302260     0.18230
N2456       N  0.07727759  0.37121509  0.71410838    -0.88490
H2457       H  0.94297904  0.29598504  0.68564416     0.35610
H2458       H  0.93401779  0.30783965  0.72648014     0.40700
H2459       H  0.07404819  0.39663423  0.70632869     0.40320
H2460       H  0.08680910  0.37126499  0.73945569     0.35210
C2461       C  0.98544228  0.64947146  0.72957750    -0.26520
C2462       C  0.01330957  0.62822305  0.71965686    -0.14590
C2463       C  0.04665780  0.64360247  0.72159629     0.36040
C2464       C  0.05103431  0.67709837  0.73661721    -0.25970
C2465       C  0.02290846  0.69748442  0.74837183    -0.15210
C2466       C  0.98939337  0.68323761  0.74242868     0.37120
N2467       N  0.95826581  0.70211146  0.74891076    -0.89460
H2468       H  0.95940334  0.63919020  0.72809322     0.18240
H2469       H  0.07686551  0.68746916  0.73894508     0.18230
N2470       N  0.07610027  0.62559112  0.70833667    -0.88490
H2471       H  0.94304987  0.70085446  0.72652467     0.35610
H2472       H  0.96375896  0.72800728  0.75120746     0.40700
H2473       H  0.07951405  0.60335478  0.72308115     0.40320
H2474       H  0.09856324  0.64024313  0.71129751     0.35210
C2475       C  0.86517095  0.53937238  0.71198753    -0.26520
C2476       C  0.88669822  0.51026321  0.71046729    -0.14590
C2477       C  0.87117121  0.47887702  0.72085088     0.36040
C2478       C  0.83765887  0.47818025  0.73710834    -0.25970
C2479       C  0.81656010  0.50762263  0.73973357    -0.15210
C2480       C  0.83055262  0.53818777  0.72501389     0.37120
N2481       N  0.80997145  0.56859397  0.72425683    -0.89460
H2482       H  0.87619395  0.56396048  0.70470768     0.18240
H2483       H  0.82775313  0.45413319  0.74716110     0.18230
N2484       N  0.88981140  0.44770034  0.71554162    -0.88490
H2485       H  0.82097662  0.58668785  0.70727878     0.35610
H2486       H  0.81136901  0.57921510  0.74898003     0.40700
H2487       H  0.87500322  0.42670927  0.72389009     0.40320
H2488       H  0.89333122  0.44496805  0.68875348     0.35210
C2489       C  0.73204679  0.36608925  0.94945623    -0.26520
C2490       C  0.72542594  0.38301889  0.98085417    -0.14590
C2491       C  0.73034316  0.36436994  0.01211363     0.36040
C2492       C  0.74624095  0.33178091  0.01126128    -0.25970
C2493       C  0.75440249  0.31538548  0.97967495    -0.15210
C2494       C  0.74589128  0.33291864  0.94852117     0.37120
N2495       N  0.75154851  0.31756682  0.91549407    -0.89460
H2496       H  0.72888031  0.37990469  0.92506825     0.18240
H2497       H  0.74999420  0.31799293  0.03552535     0.18230
N2498       N  0.71732841  0.37669040  0.04466764    -0.88490
H2499       H  0.76853016  0.33331216  0.90131535     0.35610
H2500       H  0.72803303  0.31711300  0.90218599     0.40700
H2501       H  0.70661553  0.40100527  0.04171611     0.40320
H2502       H  0.73758888  0.37849264  0.06231439     0.35210
C2503       C  0.74787713  0.64458854  0.95897971    -0.26520
C2504       C  0.74035596  0.62424257  0.98857300    -0.14590
C2505       C  0.74946503  0.63767285  0.02150961     0.36040
C2506       C  0.76730985  0.66949292  0.02318638    -0.25970
C2507       C  0.77792946  0.68752342  0.99287059    -0.15210
C2508       C  0.76913665  0.67366737  0.96052077     0.37120
N2509       N  0.78156832  0.68950779  0.92899055    -0.89460
H2510       H  0.74096490  0.63504912  0.93354373     0.18240
H2511       H  0.77238578  0.68056635  0.04836735     0.18230
N2512       N  0.74221797  0.61961751  0.05344326    -0.88490
H2513       H  0.77258491  0.67650737  0.90717199     0.35610
H2514       H  0.80847592  0.68741074  0.92870059     0.40700
H2515       H  0.72769641  0.59761390  0.04886897     0.40320
H2516       H  0.72644494  0.63530792  0.06851446     0.35210
C2517       C  0.74648422  0.53457060  0.13695376    -0.26520
C2518       C  0.73676067  0.50736122  0.11491455    -0.14590
C2519       C  0.73719301  0.47404775  0.13053496     0.36040
C2520       C  0.75074123  0.46915157  0.16485239    -0.25970
C2521       C  0.76331474  0.49640280  0.18545609    -0.15210
C2522       C  0.75948838  0.52979307  0.17111710     0.37120
N2523       N  0.76861012  0.55988853  0.19025099    -0.89460
H2524       H  0.74577065  0.56047256  0.12667068     0.18240
H2525       H  0.75124679  0.44346638  0.17552571     0.18230
N2526       N  0.72493237  0.44437667  0.11261320    -0.88490
H2527       H  0.78913159  0.57190781  0.17714172     0.35610
H2528       H  0.77748883  0.55397602  0.21513088     0.40700
H2529       H  0.71444761  0.45072401  0.08851541     0.40320
H2530       H  0.74599003  0.42832699  0.10833276     0.35210
C2531       C  0.74562442  0.52610376  0.84561925    -0.26520
C2532       C  0.73670286  0.49353892  0.85930894    -0.14590
C2533       C  0.74004489  0.46559233  0.83607112     0.36040
C2534       C  0.75505530  0.47010913  0.80247295    -0.25970
C2535       C  0.76606150  0.50211655  0.78938315    -0.15210
C2536       C  0.76026240  0.53065294  0.81140540     0.37120
N2537       N  0.77070798  0.56414309  0.79987067    -0.89460
H2538       H  0.74389427  0.54789426  0.86266092     0.18240
H2539       H  0.75873981  0.44796547  0.78639439     0.18230
N2540       N  0.72815647  0.43214041  0.84670026    -0.88490
H2541       H  0.76597503  0.58214336  0.81918871     0.35610
H2542       H  0.75524123  0.57098221  0.77877172     0.40700
H2543       H  0.74605246  0.42184457  0.86411407     0.40320
H2544       H  0.72784729  0.41564255  0.82548971     0.35210
C2545       C  0.24517985  0.46107844  0.63658259    -0.26520
C2546       C  0.24178977  0.49073852  0.61539734    -0.14590
C2547       C  0.24990208  0.52240584  0.63117054     0.36040
C2548       C  0.26217456  0.52314230  0.66638282    -0.25970
C2549       C  0.26762226  0.49290799  0.68631237    -0.15210
C2550       C  0.25936138  0.46155545  0.67039093     0.37120
N2551       N  0.26761050  0.42981379  0.68755572    -0.89460
H2552       H  0.23951690  0.43639189  0.62534539     0.18240
H2553       H  0.26835959  0.54744430  0.67805894     0.18230
N2554       N  0.24692633  0.55352698  0.61129576    -0.88490
H2555       H  0.26130739  0.40896667  0.67197923     0.35610
H2556       H  0.25254712  0.42744882  0.70991751     0.40700
H2557       H  0.26493110  0.55264439  0.59101235     0.40320
H2558       H  0.25371963  0.57450750  0.62648453     0.35210
C2559       C  0.24804175  0.52000456  0.33971054    -0.26520
C2560       C  0.23827148  0.49002411  0.35819799    -0.14590
C2561       C  0.23934488  0.45891979  0.33941209     0.36040
C2562       C  0.25309143  0.45796731  0.30524081    -0.25970
C2563       C  0.26404712  0.48750544  0.28714077    -0.15210
C2564       C  0.26038448  0.51912093  0.30454334     0.37120
N2565       N  0.27086154  0.55014140  0.28711035    -0.89460
H2566       H  0.24839028  0.54397717  0.35349840     0.18240
H2567       H  0.25597760  0.43349652  0.29295682     0.18230
N2568       N  0.22809949  0.42760671  0.35592896    -0.88490
H2569       H  0.26722720  0.57110959  0.30332597     0.35610
H2570       H  0.25456327  0.55375016  0.26578757     0.40700
H2571       H  0.24679132  0.42039646  0.37406422     0.40320
H2572       H  0.22703447  0.40781826  0.33789283     0.35210
C2573       C  0.24428374  0.64731473  0.45963988    -0.26520
C2574       C  0.24176952  0.62806920  0.49096157    -0.14590
C2575       C  0.25068523  0.64605169  0.52165333     0.36040
C2576       C  0.26411683  0.68004764  0.52040140    -0.25970
C2577       C  0.26861694  0.69847126  0.48896359    -0.15210
C2578       C  0.25712981  0.68180934  0.45833565     0.37120
N2579       N  0.25959302  0.69950415  0.42554183    -0.89460
H2580       H  0.23943081  0.63423228  0.43544775     0.18240
H2581       H  0.27138412  0.69190337  0.54457023     0.18230
N2582       N  0.24949660  0.62826257  0.55438421    -0.88490
H2583       H  0.24896315  0.68470121  0.40575489     0.35610
H2584       H  0.28585034  0.70234625  0.41967734     0.40700
H2585       H  0.27442263  0.62820263  0.56482970     0.40320
H2586       H  0.23352848  0.64202053  0.57112743     0.35210
C2587       C  0.22360283  0.36031595  0.50621157    -0.26520
C2588       C  0.21783336  0.37718497  0.47412148    -0.14590
C2589       C  0.21659808  0.35614523  0.44434503     0.36040
C2590       C  0.22719878  0.32169035  0.44612681    -0.25970
C2591       C  0.23611081  0.30490869  0.47745382    -0.15210
C2592       C  0.23239393  0.32485439  0.50820689     0.37120
N2593       N  0.23947291  0.31067495  0.54181865    -0.89460
H2594       H  0.22461702  0.37535511  0.52967351     0.18240
H2595       H  0.22909642  0.30867141  0.42186830     0.18230
N2596       N  0.20663201  0.36966750  0.41096637    -0.88490
H2597       H  0.26580538  0.30532609  0.54318673     0.35610
H2598       H  0.22530478  0.28801706  0.54492019     0.40700
H2599       H  0.19701499  0.39444920  0.41333759     0.40320
H2600       H  0.18575136  0.35501473  0.40227129     0.35210
C2601       C  0.48476938  0.64222007  0.74441206    -0.26520
C2602       C  0.51319281  0.62001138  0.74741704    -0.14590
C2603       C  0.54643369  0.63353048  0.73920103     0.36040
C2604       C  0.54925286  0.66636338  0.72369890    -0.25970
C2605       C  0.52077433  0.68847909  0.72067774    -0.15210
C2606       C  0.48810645  0.67610543  0.73238986     0.37120
N2607       N  0.45765380  0.69692712  0.73309313    -0.89460
H2608       H  0.45910006  0.63280270  0.75093476     0.18240
H2609       H  0.57463191  0.67562391  0.71605631     0.18230
N2610       N  0.57780005  0.61498083  0.74544088    -0.88490
H2611       H  0.44019570  0.68696670  0.71509440     0.35610
H2612       H  0.46292393  0.72191461  0.72545371     0.40700
H2613       H  0.57313260  0.59249884  0.75939593     0.40320
H2614       H  0.59329228  0.62983436  0.76166044     0.35210
C2615       C  0.66071443  0.47103327  0.75326089    -0.26520
C2616       C  0.64249345  0.50144452  0.76044860    -0.14590
C2617       C  0.66174453  0.53224689  0.75708138     0.36040
C2618       C  0.69716159  0.53170850  0.74539090    -0.25970
C2619       C  0.71416447  0.50114642  0.73536575    -0.15210
C2620       C  0.69439156  0.47060232  0.73912216     0.37120
N2621       N  0.70640253  0.43848190  0.72676694    -0.89460
H2622       H  0.64673741  0.44691286  0.75438481     0.18240
H2623       H  0.71112958  0.55559807  0.74271106     0.18230
N2624       N  0.64498209  0.56409688  0.76406230    -0.88490
H2625       H  0.72710742  0.43040188  0.74184460     0.35610
H2626       H  0.71357358  0.44132103  0.70069350     0.40700
H2627       H  0.63812500  0.56400111  0.79037841     0.40320
H2628       H  0.66222794  0.58447980  0.76026977     0.35210
C2629       C  0.36386160  0.46284151  0.76354324    -0.26520
C2630       C  0.38551155  0.49199819  0.76270243    -0.14590
C2631       C  0.37041256  0.52299187  0.75084070     0.36040
C2632       C  0.33548061  0.52325823  0.73826365    -0.25970
C2633       C  0.31503819  0.49313086  0.73682865    -0.15210
C2634       C  0.32992110  0.46286863  0.75024261     0.37120
N2635       N  0.31124132  0.43127649  0.74922549    -0.89460
H2636       H  0.37450770  0.43856125  0.77204030     0.18240
H2637       H  0.32434147  0.54701064  0.72902136     0.18230
N2638       N  0.39120246  0.55346441  0.74910366    -0.88490
H2639       H  0.31127431  0.42073024  0.77428012     0.35610
H2640       H  0.32500068  0.41456000  0.73334872     0.40700
H2641       H  0.39780821  0.55985909  0.77455913     0.40320
H2642       H  0.37677741  0.57384791  0.73912980     0.35210
C2643       C  0.49276619  0.37269276  0.78175088    -0.26520
C2644       C  0.52686054  0.38537842  0.78012787    -0.14590
C2645       C  0.55387357  0.36256657  0.77246702     0.36040
C2646       C  0.54637853  0.32920962  0.76227649    -0.25970
C2647       C  0.51248317  0.31662261  0.76244938    -0.15210
C2648       C  0.48541979  0.33839114  0.77311723     0.37120
N2649       N  0.45038560  0.32637792  0.77326100    -0.89460
H2650       H  0.47158905  0.38986121  0.78726738     0.18240
H2651       H  0.56757783  0.31300696  0.75482144     0.18230
N2652       N  0.58923707  0.37344200  0.77474899    -0.88490
H2653       H  0.44004577  0.33045469  0.79800733     0.35610
H2654       H  0.43641307  0.34144961  0.75568395     0.40700
H2655       H  0.60153653  0.36813561  0.75125515     0.40320
H2656       H  0.60119193  0.35845424  0.79386014     0.35210
C2657       C  0.77857222  0.64566953  0.51021613    -0.26520
C2658       C  0.76293149  0.66479157  0.48332643    -0.14590
C2659       C  0.75877968  0.64903935  0.45076426     0.36040
C2660       C  0.77075722  0.61585695  0.44565100    -0.25970
C2661       C  0.78577735  0.59618955  0.47241738    -0.15210
C2662       C  0.79081622  0.61211888  0.50521674     0.37120
N2663       N  0.80738223  0.59571958  0.53429212    -0.89460
H2664       H  0.78271841  0.65762240  0.53516562     0.18240
H2665       H  0.76749798  0.60492930  0.42009202     0.18230
N2666       N  0.74354082  0.66622996  0.42171305    -0.88490
H2667       H  0.82854367  0.61091164  0.54122556     0.35610
H2668       H  0.81781644  0.57221807  0.52793819     0.40700
H2669       H  0.75863822  0.68754724  0.41541756     0.40320
H2670       H  0.71863180  0.67381794  0.42857096     0.35210
C2671       C  0.79105105  0.46383957  0.63898096    -0.26520
C2672       C  0.78987708  0.49152792  0.61529919    -0.14590
C2673       C  0.77944378  0.52346275  0.62927986     0.36040
C2674       C  0.76652895  0.52556129  0.66406742    -0.25970
C2675       C  0.76513720  0.49698617  0.68690104    -0.15210
C2676       C  0.77990947  0.46610007  0.67399181     0.37120
N2677       N  0.78431483  0.43609188  0.69527790    -0.89460
H2678       H  0.79882048  0.43903495  0.62943464     0.18240
H2679       H  0.75769948  0.55004941  0.67342646     0.18230
N2680       N  0.78083788  0.55422377  0.60867862    -0.88490
H2681       H  0.76824561  0.41682416  0.68570038     0.35610
H2682       H  0.77736917  0.44042219  0.72093171     0.40700
H2683       H  0.79169181  0.54933347  0.58438034     0.40320
H2684       H  0.79776954  0.57111322  0.62096825     0.35210
C2685       C  0.79169412  0.31210160  0.53166100    -0.26520
C2686       C  0.77747065  0.29987985  0.50063549    -0.14590
C2687       C  0.77927339  0.32049124  0.47040334     0.36040
C2688       C  0.79428453  0.35332214  0.47223454    -0.25970
C2689       C  0.80405678  0.36709181  0.50435677    -0.15210
C2690       C  0.80458351  0.34543310  0.53396660     0.37120
N2691       N  0.81718112  0.35687842  0.56700179    -0.89460
H2692       H  0.79307499  0.29560171  0.55435920     0.18240
H2693       H  0.79453771  0.36942451  0.44921838     0.18230
N2694       N  0.76205578  0.30986721  0.43914545    -0.88490
H2695       H  0.79612529  0.35793768  0.58408201     0.35610
H2696       H  0.82768715  0.38149027  0.56509363     0.40700
H2697       H  0.76952573  0.28526668  0.43263611     0.40320
H2698       H  0.76893373  0.32590107  0.41828637     0.35210
C2699       C  0.77672099  0.45474032  0.29894421    -0.26520
C2700       C  0.76100516  0.48519745  0.28750241    -0.14590
C2701       C  0.76123617  0.51303593  0.31094875     0.36040
C2702       C  0.77480863  0.50896859  0.34540011    -0.25970
C2703       C  0.78854540  0.47754315  0.35735325    -0.15210
C2704       C  0.79091989  0.45085567  0.33251268     0.37120
N2705       N  0.80720874  0.41881533  0.34074361    -0.89460
H2706       H  0.77856839  0.43349070  0.28135374     0.18240
H2707       H  0.77183213  0.52950857  0.36382397     0.18230
N2708       N  0.74648774  0.54505399  0.30020261    -0.88490
H2709       H  0.78789493  0.40004648  0.34225065     0.35610
H2710       H  0.81972730  0.41954050  0.36474381     0.40700
H2711       H  0.76158763  0.55483520  0.27978689     0.40320
H2712       H  0.74799030  0.56277537  0.32030345     0.35210
C2713       C  0.67694846  0.75012972  0.45206900    -0.26520
C2714       C  0.65241434  0.74649485  0.47916007    -0.14590
C2715       C  0.66515389  0.73341105  0.51117780     0.36040
C2716       C  0.69920227  0.71896988  0.51333274    -0.25970
C2717       C  0.72272715  0.71987969  0.48497900    -0.15210
C2718       C  0.71177543  0.73878589  0.45526909     0.37120
N2719       N  0.73563481  0.74614413  0.42766543    -0.89460
H2720       H  0.66853911  0.76051650  0.42729292     0.18240
H2721       H  0.70742344  0.70693188  0.53738384     0.18230
N2722       N  0.64301566  0.73377920  0.54120704    -0.88490
H2723       H  0.73744687  0.77272170  0.42498943     0.35610
H2724       H  0.72517775  0.73679328  0.40458693     0.40700
H2725       H  0.65594825  0.72376891  0.56283939     0.40320
H2726       H  0.63770419  0.75933190  0.54676564     0.35210
C2727       C  0.55795643  0.76472646  0.62509070    -0.26520
C2728       C  0.52755136  0.76372940  0.60460734    -0.14590
C2729       C  0.49653374  0.75542820  0.62253056     0.36040
C2730       C  0.49728131  0.74293308  0.65749514    -0.25970
C2731       C  0.52816190  0.74092253  0.67696744    -0.15210
C2732       C  0.55862372  0.75354100  0.66056073     0.37120
N2733       N  0.59070755  0.75315585  0.67928490    -0.89460
H2734       H  0.58228764  0.77019459  0.61206008     0.18240
H2735       H  0.47337120  0.73434822  0.66931731     0.18230
N2736       N  0.46446822  0.75645885  0.60380653    -0.88490
H2737       H  0.61071879  0.76321347  0.66388617     0.35610
H2738       H  0.59693441  0.72763890  0.68448409     0.40700
H2739       H  0.46003720  0.78192071  0.59664886     0.40320
H2740       H  0.44389821  0.74900975  0.61994946     0.35210
C2741       C  0.37948006  0.75438363  0.50912887    -0.26520
C2742       C  0.39398332  0.76035463  0.47578585    -0.14590
C2743       C  0.36983413  0.76155713  0.44768372     0.36040
C2744       C  0.33435067  0.75311611  0.45280698    -0.25970
C2745       C  0.32006933  0.74534321  0.48571568    -0.15210
C2746       C  0.34333708  0.74766435  0.51449050     0.37120
N2747       N  0.33158898  0.74279142  0.54964230    -0.89460
H2748       H  0.39672562  0.75251361  0.53120116     0.18240
H2749       H  0.31771580  0.75252536  0.43028036     0.18230
N2750       N  0.38096541  0.76933865  0.41273822    -0.88490
H2751       H  0.34232430  0.72002160  0.55902072     0.35610
H2752       H  0.30479259  0.74008938  0.55088594     0.40700
H2753       H  0.40690961  0.77690641  0.41219022     0.40320
H2754       H  0.36703776  0.79068526  0.40423835     0.35210
C2755       C  0.50441377  0.73138047  0.29640995    -0.26520
C2756       C  0.53442708  0.72028401  0.27851714    -0.14590
C2757       C  0.56638349  0.72583972  0.29540022     0.36040
C2758       C  0.56767368  0.73908959  0.32949930    -0.25970
C2759       C  0.53773423  0.74685136  0.34893883    -0.15210
C2760       C  0.50573586  0.74448918  0.33117347     0.37120
N2761       N  0.47450580  0.75362687  0.34899789    -0.89460
H2762       H  0.47965387  0.72888112  0.28361409     0.18240
H2763       H  0.59265174  0.74053882  0.34213446     0.18230
N2764       N  0.59808064  0.71720334  0.27852522    -0.88490
H2765       H  0.45313033  0.75015519  0.33282056     0.35610
H2766       H  0.47593045  0.77975944  0.35426980     0.40700
H2767       H  0.61064799  0.69896245  0.29395775     0.40320
H2768       H  0.61374949  0.73905433  0.27751219     0.35210
C2769       C  0.66436372  0.44851132  0.21674576    -0.26520
C2770       C  0.64132712  0.47629224  0.21250211    -0.14590
C2771       C  0.65505230  0.50919706  0.21957386     0.36040
C2772       C  0.68982625  0.51318881  0.23188517    -0.25970
C2773       C  0.71152991  0.48480835  0.23871410    -0.15210
C2774       C  0.69819438  0.45216401  0.23042333     0.37120
N2775       N  0.71911051  0.42238867  0.23611813    -0.89460
H2776       H  0.65495044  0.42292607  0.21161183     0.18240
H2777       H  0.69966830  0.53865504  0.23674736     0.18230
N2778       N  0.63345527  0.53854687  0.21603024    -0.88490
H2779       H  0.70661239  0.40047978  0.22706113     0.35610
H2780       H  0.72151464  0.41908387  0.26298887     0.40700
H2781       H  0.64530358  0.55542703  0.19835401     0.40320
H2782       H  0.63254802  0.55053403  0.24013802     0.35210
C2783       C  0.37104898  0.46194008  0.22948189    -0.26520
C2784       C  0.38403510  0.49163868  0.21268333    -0.14590
C2785       C  0.36002958  0.51861853  0.20689057     0.36040
C2786       C  0.32537633  0.51587294  0.21890157    -0.25970
C2787       C  0.31313311  0.48722933  0.23785848    -0.15210
C2788       C  0.33666776  0.45997555  0.24325671     0.37120
N2789       N  0.32647788  0.43127643  0.26466827    -0.89460
H2790       H  0.38894703  0.44140116  0.23505734     0.18240
H2791       H  0.30790384  0.53692711  0.21397592     0.18230
N2792       N  0.37019622  0.54973879  0.18938240    -0.88490
H2793       H  0.34652858  0.41351081  0.26641110     0.35610
H2794       H  0.30580372  0.41885329  0.25281276     0.40700
H2795       H  0.39553476  0.54835435  0.18001719     0.40320
H2796       H  0.36946845  0.56939008  0.20758238     0.35210
C2797       C  0.46260889  0.35163600  0.20203111    -0.26520
C2798       C  0.49250036  0.37139302  0.19587985    -0.14590
C2799       C  0.52523752  0.35536583  0.19918534     0.36040
C2800       C  0.52692670  0.32243363  0.21405570    -0.25970
C2801       C  0.49698555  0.30399625  0.22314701    -0.15210
C2802       C  0.46449992  0.31819511  0.21522594     0.37120
N2803       N  0.43326277  0.29909653  0.22088157    -0.89460
H2804       H  0.43733897  0.36318868  0.19898710     0.18240
H2805       H  0.55201507  0.31113759  0.21873299     0.18230
N2806       N  0.55726386  0.37193472  0.18979758    -0.88490
H2807       H  0.41993727  0.29804336  0.19731150     0.35610
H2808       H  0.41777661  0.31259136  0.23827003     0.40700
H2809       H  0.55292920  0.39454923  0.17603506     0.40320
H2810       H  0.57002476  0.35615372  0.17218929     0.35210
C2811       C  0.56417735  0.61760977  0.21383833    -0.26520
C2812       C  0.53324403  0.59904907  0.21100409    -0.14590
C2813       C  0.50176067  0.61596147  0.21802184     0.36040
C2814       C  0.50243837  0.64984063  0.23078341    -0.25970
C2815       C  0.53373461  0.66794549  0.23477149    -0.15210
C2816       C  0.56470209  0.65165844  0.22487967     0.37120
N2817       N  0.59705818  0.66938676  0.22585652    -0.89460
H2818       H  0.58855838  0.60511252  0.20844152     0.18240
H2819       H  0.47834812  0.66265538  0.23657863     0.18230
N2820       N  0.46938150  0.59846239  0.21348698    -0.88490
H2821       H  0.60826716  0.66802538  0.20114125     0.35610
H2822       H  0.61324333  0.65610359  0.24297781     0.40700
H2823       H  0.46668776  0.59351083  0.18697707     0.40320
H2824       H  0.44875536  0.61420656  0.22042186     0.35210
C2825       C  0.48035329  0.26757828  0.69941952    -0.26520
C2826       C  0.51004446  0.26663144  0.71987999    -0.14590
C2827       C  0.54103016  0.25291462  0.70600614     0.36040
C2828       C  0.54195971  0.24308873  0.67122290    -0.25970
C2829       C  0.51280808  0.24603325  0.64998071    -0.15210
C2830       C  0.48111195  0.25703692  0.66496182     0.37120
N2831       N  0.44950949  0.25924873  0.64579507    -0.89460
H2832       H  0.45637508  0.27715916  0.71020711     0.18240
H2833       H  0.56623402  0.23447779  0.66026007     0.18230
N2834       N  0.57216919  0.24897069  0.72582720    -0.88490
H2835       H  0.44321991  0.23491628  0.63677839     0.35610
H2836       H  0.45275772  0.27617142  0.62488577     0.40700
H2837       H  0.56876961  0.25633433  0.75142360     0.40320
H2838       H  0.59088935  0.26530611  0.71498870     0.35210
C2839       C  0.52799259  0.24322068  0.32704040    -0.26520
C2840       C  0.49729610  0.24918858  0.34575149    -0.14590
C2841       C  0.46708945  0.25860049  0.32679191     0.36040
C2842       C  0.46900772  0.26339263  0.29095967    -0.25970
C2843       C  0.50007750  0.25971662  0.27288405    -0.15210
C2844       C  0.52972802  0.24863479  0.29085309     0.37120
N2845       N  0.56162861  0.24362346  0.27245207    -0.89460
H2846       H  0.55119339  0.23569329  0.34077676     0.18240
H2847       H  0.44575912  0.27042959  0.27729729     0.18230
N2848       N  0.43404609  0.26434925  0.34267767    -0.88490
H2849       H  0.58089711  0.23496285  0.28934279     0.35610
H2850       H  0.56983371  0.26743018  0.26286479     0.40700
H2851       H  0.43550917  0.28554176  0.35890974     0.40320
H2852       H  0.42648499  0.24246557  0.35664401     0.35210
C2853       C  0.30342028  0.25577669  0.51063307    -0.26520
C2854       C  0.28832110  0.26333538  0.47839959    -0.14590
C2855       C  0.30906393  0.26292027  0.44802431     0.36040
C2856       C  0.34423987  0.25704152  0.45100244    -0.25970
C2857       C  0.35992409  0.25141230  0.48336128    -0.15210
C2858       C  0.33897404  0.24949871  0.51353814     0.37120
N2859       N  0.35358055  0.24144512  0.54691113    -0.89460
H2860       H  0.28723490  0.25368119  0.53356101     0.18240
H2861       H  0.35953299  0.25783714  0.42733110     0.18230
N2862       N  0.29595767  0.26856887  0.41361546    -0.88490
H2863       H  0.33473001  0.24252435  0.56642613     0.35610
H2864       H  0.36169324  0.21601058  0.54607696     0.40700
H2865       H  0.26970384  0.27292601  0.41395220     0.40320
H2866       H  0.29952835  0.24604759  0.39966345     0.35210
C2867       C  0.67986498  0.24965333  0.54104709    -0.26520
C2868       C  0.66023677  0.23696502  0.51324140    -0.14590
C2869       C  0.67771131  0.22807466  0.48213535     0.36040
C2870       C  0.71280868  0.23667004  0.47803031    -0.25970
C2871       C  0.73138426  0.25232054  0.50476882    -0.15210
C2872       C  0.71512078  0.25716645  0.53711297     0.37120
N2873       N  0.73419007  0.26963801  0.56616072    -0.89460
H2874       H  0.66753412  0.25561529  0.56556854     0.18240
H2875       H  0.72561023  0.23186736  0.45347841     0.18230
N2876       N  0.65968071  0.21156915  0.45429555    -0.88490
H2877       H  0.72228215  0.29192494  0.57484315     0.35610
H2878       H  0.73259633  0.25135426  0.58614466     0.40700
H2879       H  0.65194878  0.18741771  0.46338883     0.40320
H2880       H  0.67620990  0.20745119  0.43318752     0.35210
loop_ 
_geom_bond_atom_site_label_1 
_geom_bond_atom_site_label_2 
_geom_bond_distance 
_geom_bond_site_symmetry_2 
_ccdc_geom_bond_type 
O1          Zr13   2.394       .  S
O1            C3   1.270       .  A
O2          Zr39   2.448       .  S
O2            C3   1.283       .  A
C3          C195   1.453       .  S
O4          Zr16   2.365       .  S
O4            C6   1.271       .  A
O5          Zr40   2.441       .  S
O5            C6   1.285       .  A
C6          C319   1.443       .  S
O7          Zr16   2.374       .  S
O7            C9   1.269       .  A
O8          Zr39   2.474       .  S
O8            C9   1.291       .  A
C9          C251   1.450       .  S
O10         Zr13   2.375       .  S
O10          C12   1.275       .  A
O11         Zr40   2.445       .  S
O11          C12   1.286       .  A
C12          C65   1.450       .  S
Zr13         O14   2.426       .  S
Zr13         O15   2.438       .  S
Zr13         O19   2.335       .  S
Zr13         O20   2.363       .  S
Zr13         O43   2.344       .  S
Zr13         O45   2.336       .  S
O14          H57   0.990       .  S
O15          H56   0.991       .  S
O15          H60   0.990       .  S
Zr16         O17   2.423       .  S
Zr16         O18   2.439       .  S
Zr16         O20   2.360       .  S
Zr16         O19   2.339       .  S
Zr16         O44   2.328       .  S
Zr16         O46   2.334       .  S
O17          H58   0.990       .  S
O17          H61   0.990       .  S
O18          H51   0.991       .  S
O19         Zr39   2.359       .  S
O20         Zr40   2.368       .  S
O20          H47   0.964       .  S
O21         Zr33   2.479       .  S
O21          C23   1.295       .  A
O22         Zr40   2.381       .  S
O22          C23   1.273       .  A
C23        C2840   1.490       .  S
O24         Zr36   2.444       .  S
O24          C26   1.288       .  A
O25         Zr39   2.430       .  S
O25          C26   1.291       .  A
C26        C2829   1.476       .  S
O27         Zr36   2.451       .  S
O27          C29   1.288       .  A
O28         Zr40   2.390       .  S
O28          C29   1.282       .  A
C29        C2857   1.478       .  S
O30         Zr33   2.457       .  S
O30          C32   1.291       .  A
O31         Zr39   2.420       .  S
O31          C32   1.290       .  A
C32        C2868   1.491       .  S
Zr33         O34   2.432       .  S
Zr33         O35   2.433       .  S
Zr33         O41   2.375       .  S
Zr33         O42   2.390       .  S
Zr33         O45   2.387       .  S
Zr33         O43   2.374       .  S
O34          H54   0.990       .  S
O34          H59   0.990       .  S
O35          H55   0.990       .  S
Zr36         O37   2.432       .  S
Zr36         O38   2.437       .  S
Zr36         O42   2.378       .  S
Zr36         O41   2.376       .  S
Zr36         O46   2.379       .  S
Zr36         O44   2.387       .  S
O37          H53   0.990       .  S
O38          H52   0.990       .  S
O38          H62   0.990       .  S
Zr39         O42   2.408       .  S
Zr39         O44   2.392       .  S
Zr39         O45   2.411       .  S
Zr40         O41   2.408       .  S
Zr40         O43   2.386       .  S
Zr40         O46   2.382       .  S
O41          H49   0.966       .  S
O44          H48   0.962       .  S
O45          H50   0.964       .  S
O63         Zr75   2.433       .  S
O63          C65   1.281       .  A
O64        Zr101   2.389       .  S
O64          C65   1.285       .  A
O66         Zr78   2.378       .  S
O66          C68   1.259       .  A
O67        Zr102   2.601       .  S
O67          C68   1.310       .  A
C68        C2770   1.535       .  S
O69         Zr78   2.441       .  S
O69          C71   1.287       .  A
O70        Zr101   2.384       .  S
O70          C71   1.281       .  A
C71         C189   1.455       .  S
O72         Zr75   2.420       .  S
O72          C74   1.272       .  A
O73        Zr102   2.443       .  S
O73          C74   1.281       .  A
C74        C2798   1.483       .  S
Zr75         O76   2.425       .  S
Zr75         O77   2.434       .  S
Zr75         O81   2.371       .  S
Zr75         O82   2.375       .  S
Zr75        O105   2.372       .  S
Zr75        O107   2.363       .  S
O76         H119   0.990       .  S
O77         H118   0.990       .  S
O77         H122   0.990       .  S
Zr78         O79   2.435       .  S
Zr78         O80   2.433       .  S
Zr78         O82   2.380       .  S
Zr78         O81   2.345       .  S
Zr78        O106   2.346       .  S
Zr78        O108   2.397       .  S
O79         H120   0.990       .  S
O79         H123   0.990       .  S
O80         H113   0.990       .  S
O81        Zr101   2.352       .  S
O82        Zr102   2.459       .  S
O82         H109   0.960       .  S
O83         Zr95   2.384       .  S
O83          C85   1.259       .  A
O84        Zr102   2.581       .  S
O84          C85   1.308       .  A
C85        C2784   1.519       .  S
O86         Zr98   2.372       .  S
O86          C88   1.271       .  A
O87        Zr101   2.379       .  S
O87          C88   1.279       .  A
C88         C133   1.416       .  S
O89         Zr98   2.404       .  S
O89          C91   1.269       .  A
O90        Zr102   2.467       .  S
O90          C91   1.286       .  A
C91        C2812   1.490       .  S
O92         Zr95   2.413       .  S
O92          C94   1.280       .  A
O93        Zr101   2.356       .  S
O93          C94   1.275       .  A
C94         C336   1.429       .  S
Zr95         O96   2.440       .  S
Zr95         O97   2.434       .  S
Zr95        O103   2.388       .  S
Zr95        O104   2.339       .  S
Zr95        O107   2.363       .  S
Zr95        O105   2.372       .  S
O96         H116   0.990       .  S
O96         H121   0.991       .  S
O97         H117   0.990       .  S
Zr98         O99   2.436       .  S
Zr98        O100   2.439       .  S
Zr98        O104   2.361       .  S
Zr98        O103   2.356       .  S
Zr98        O108   2.352       .  S
Zr98        O106   2.381       .  S
O99         H115   0.990       .  S
O100        H114   0.988       .  S
O100        H124   0.990       .  S
Zr101       O104   2.371       .  S
Zr101       O106   2.363       .  S
Zr101       O107   2.368       .  S
Zr102       O103   2.436       .  S
Zr102       O105   2.435       .  S
Zr102       O108   2.416       .  S
O103        H111   0.961       .  S
O106        H110   0.965       .  S
O107        H112   0.966       .  S
O125       Zr137   2.439       .  S
O125        C127   1.289       .  A
O126       Zr163   2.330       .  S
O126        C127   1.266       .  A
C127        C342   1.428       .  S
O128       Zr140   2.381       .  S
O128        C130   1.262       .  A
O129       Zr164   2.571       .  S
O129        C130   1.305       .  A
C130       C2759   1.525       .  S
O131       Zr140   2.434       .  S
O131        C133   1.286       .  A
O132       Zr163   2.328       .  S
O132        C133   1.267       .  A
O134       Zr137   2.354       .  S
O134        C136   1.259       .  A
O135       Zr164   2.628       .  S
O135        C136   1.322       .  A
C136       C2742   1.533       .  S
Zr137       O138   2.434       .  S
Zr137       O139   2.435       .  S
Zr137       O143   2.351       .  S
Zr137       O144   2.386       .  S
Zr137       O167   2.399       .  S
Zr137       O169   2.328       .  S
O138        H181   0.990       .  S
O139        H180   0.990       .  S
O139        H184   0.990       .  S
Zr140       O141   2.445       .  S
Zr140       O142   2.432       .  S
Zr140       O144   2.377       .  S
Zr140       O143   2.348       .  S
Zr140       O168   2.343       .  S
Zr140       O170   2.382       .  S
O141        H182   0.987       .  S
O141        H185   0.989       .  S
O142        H175   0.990       .  S
O143       Zr163   2.366       .  S
O144       Zr164   2.449       .  S
O144        H171   0.963       .  S
O145       Zr157   2.342       .  S
O145        C147   1.261       .  A
O146       Zr164   2.605       .  S
O146        C147   1.322       .  A
C147       C2728   1.508       .  S
O148       Zr160   2.421       .  S
O148        C150   1.283       .  A
O149       Zr163   2.346       .  S
O149        C150   1.269       .  A
C150        C218   1.421       .  S
O151       Zr160   2.386       .  S
O151        C153   1.262       .  A
O152       Zr164   2.584       .  S
O152        C153   1.310       .  A
C153       C2714   1.529       .  S
O154       Zr157   2.395       .  S
O154        C156   1.280       .  A
O155       Zr163   2.358       .  S
O155        C156   1.272       .  A
C156        C274   1.419       .  S
Zr157       O158   2.439       .  S
Zr157       O159   2.432       .  S
Zr157       O165   2.378       .  S
Zr157       O166   2.355       .  S
Zr157       O169   2.344       .  S
Zr157       O167   2.383       .  S
O158        H178   0.990       .  S
O158        H183   0.991       .  S
O159        H179   0.989       .  S
Zr160       O161   2.429       .  S
Zr160       O162   2.438       .  S
Zr160       O166   2.355       .  S
Zr160       O165   2.370       .  S
Zr160       O170   2.370       .  S
Zr160       O168   2.337       .  S
O161        H177   0.990       .  S
O162        H176   0.990       .  S
O162        H186   0.988       .  S
Zr163       O166   2.349       .  S
Zr163       O168   2.364       .  S
Zr163       O169   2.350       .  S
Zr164       O165   2.429       .  S
Zr164       O167   2.406       .  S
Zr164       O170   2.441       .  S
O165        H173   0.963       .  S
O168        H172   0.962       .  S
O169        H174   0.964       .  S
O187       Zr199   2.435       .  S
O187        C189   1.285       .  A
O188       Zr225   2.387       .  S
O188        C189   1.281       .  A
O190       Zr202   2.428       .  S
O190        C192   1.271       .  A
O191       Zr226   2.449       .  S
O191        C192   1.282       .  A
C192       C2689   1.474       .  S
O193       Zr202   2.424       .  S
O193        C195   1.282       .  A
O194       Zr225   2.410       .  S
O194        C195   1.287       .  A
O196       Zr199   2.375       .  S
O196        C198   1.259       .  A
O197       Zr226   2.582       .  S
O197        C198   1.307       .  A
C198       C2703   1.521       .  S
Zr199       O200   2.435       .  S
Zr199       O201   2.433       .  S
Zr199       O205   2.352       .  S
Zr199       O206   2.383       .  S
Zr199       O229   2.398       .  S
Zr199       O231   2.348       .  S
O200        H243   0.990       .  S
O201        H242   0.990       .  S
O201        H246   0.990       .  S
Zr202       O203   2.428       .  S
Zr202       O204   2.428       .  S
Zr202       O206   2.373       .  S
Zr202       O205   2.362       .  S
Zr202       O230   2.373       .  S
Zr202       O232   2.362       .  S
O203        H244   0.986       .  S
O203        H247   0.989       .  S
O204        H237   0.990       .  S
O205       Zr225   2.355       .  S
O206       Zr226   2.458       .  S
O206        H233   0.960       .  S
O207       Zr219   2.401       .  S
O207        C209   1.269       .  A
O208       Zr226   2.454       .  S
O208        C209   1.280       .  A
C209       C2661   1.501       .  S
O210       Zr222   2.394       .  S
O210        C212   1.278       .  A
O211       Zr225   2.354       .  S
O211        C212   1.274       .  A
C212        C280   1.422       .  S
O213       Zr222   2.365       .  S
O213        C215   1.260       .  A
O214       Zr226   2.591       .  S
O214        C215   1.309       .  A
C215       C2672   1.521       .  S
O216       Zr219   2.375       .  S
O216        C218   1.273       .  A
O217       Zr225   2.388       .  S
O217        C218   1.278       .  A
Zr219       O220   2.440       .  S
Zr219       O221   2.433       .  S
Zr219       O227   2.381       .  S
Zr219       O228   2.356       .  S
Zr219       O231   2.384       .  S
Zr219       O229   2.354       .  S
O220        H240   0.987       .  S
O220        H245   0.989       .  S
O221        H241   0.991       .  S
Zr222       O223   2.432       .  S
Zr222       O224   2.441       .  S
Zr222       O228   2.328       .  S
Zr222       O227   2.376       .  S
Zr222       O232   2.359       .  S
Zr222       O230   2.353       .  S
O223        H239   0.990       .  S
O224        H238   0.990       .  S
O224        H248   0.989       .  S
Zr225       O228   2.364       .  S
Zr225       O230   2.366       .  S
Zr225       O231   2.368       .  S
Zr226       O227   2.438       .  S
Zr226       O229   2.421       .  S
Zr226       O232   2.419       .  S
O227        H235   0.965       .  S
O230        H234   0.965       .  S
O231        H236   0.965       .  S
O249       Zr261   2.402       .  S
O249        C251   1.276       .  A
O250       Zr287   2.422       .  S
O250        C251   1.290       .  A
O252       Zr264   2.380       .  S
O252        C254   1.258       .  A
O253       Zr288   2.575       .  S
O253        C254   1.306       .  A
C254       C2630   1.522       .  S
O255       Zr264   2.446       .  S
O255        C257   1.289       .  A
O256       Zr287   2.368       .  S
O256        C257   1.278       .  A
C257        C313   1.450       .  S
O258       Zr261   2.416       .  S
O258        C260   1.267       .  A
O259       Zr288   2.459       .  S
O259        C260   1.282       .  A
C260       C2644   1.482       .  S
Zr261       O262   2.423       .  S
Zr261       O263   2.436       .  S
Zr261       O267   2.381       .  S
Zr261       O268   2.388       .  S
Zr261       O291   2.351       .  S
Zr261       O293   2.370       .  S
O262        H305   0.990       .  S
O263        H304   0.990       .  S
O263        H308   0.990       .  S
Zr264       O265   2.436       .  S
Zr264       O266   2.432       .  S
Zr264       O268   2.411       .  S
Zr264       O267   2.366       .  S
Zr264       O292   2.357       .  S
Zr264       O294   2.423       .  S
O265        H306   0.990       .  S
O265        H309   0.990       .  S
O266        H299   0.990       .  S
O267       Zr287   2.362       .  S
O268       Zr288   2.467       .  S
O268        H295   0.963       .  S
O269       Zr281   2.355       .  S
O269        C271   1.260       .  A
O270       Zr288   2.630       .  S
O270        C271   1.313       .  A
C271       C2616   1.524       .  S
O272       Zr284   2.375       .  S
O272        C274   1.277       .  A
O273       Zr287   2.379       .  S
O273        C274   1.278       .  A
O275       Zr284   2.388       .  S
O275        C277   1.263       .  A
O276       Zr288   2.486       .  S
O276        C277   1.286       .  A
C277       C2602   1.503       .  S
O278       Zr281   2.401       .  S
O278        C280   1.281       .  A
O279       Zr287   2.354       .  S
O279        C280   1.273       .  A
Zr281       O282   2.420       .  S
Zr281       O283   2.435       .  S
Zr281       O289   2.338       .  S
Zr281       O290   2.338       .  S
Zr281       O293   2.345       .  S
Zr281       O291   2.375       .  S
O282        H302   0.990       .  S
O282        H307   0.989       .  S
O283        H303   0.990       .  S
Zr284       O285   2.428       .  S
Zr284       O286   2.433       .  S
Zr284       O290   2.379       .  S
Zr284       O289   2.333       .  S
Zr284       O294   2.372       .  S
Zr284       O292   2.347       .  S
O285        H301   0.990       .  S
O286        H300   0.990       .  S
O286        H310   0.990       .  S
Zr287       O290   2.409       .  S
Zr287       O292   2.387       .  S
Zr287       O293   2.372       .  S
Zr288       O289   2.361       .  S
Zr288       O291   2.416       .  S
Zr288       O294   2.443       .  S
O289        H297   0.960       .  S
O292        H296   0.966       .  S
O293        H298   0.965       .  S
O311       Zr323   2.415       .  S
O311        C313   1.282       .  A
O312       Zr349   2.398       .  S
O312        C313   1.285       .  A
O314       Zr326   2.401       .  S
O314        C316   1.266       .  A
O315       Zr350   2.558       .  S
O315        C316   1.305       .  A
C316       C2588   1.522       .  S
O317       Zr326   2.415       .  S
O317        C319   1.277       .  A
O318       Zr349   2.396       .  S
O318        C319   1.286       .  A
O320       Zr323   2.372       .  S
O320        C322   1.254       .  A
O321       Zr350   2.591       .  S
O321        C322   1.307       .  A
C322       C2546   1.529       .  S
Zr323       O324   2.433       .  S
Zr323       O325   2.434       .  S
Zr323       O329   2.360       .  S
Zr323       O330   2.380       .  S
Zr323       O353   2.402       .  S
Zr323       O355   2.359       .  S
O324        H367   0.990       .  S
O325        H366   0.990       .  S
O325        H370   0.990       .  S
Zr326       O327   2.436       .  S
Zr326       O328   2.434       .  S
Zr326       O330   2.379       .  S
Zr326       O329   2.362       .  S
Zr326       O354   2.374       .  S
Zr326       O356   2.345       .  S
O327        H368   0.988       .  S
O327        H371   0.989       .  S
O328        H361   0.990       .  S
O329       Zr349   2.363       .  S
O330       Zr350   2.481       .  S
O330        H357   0.962       .  S
O331       Zr343   2.321       .  S
O331        C333   1.261       .  A
O332       Zr350   2.623       .  S
O332        C333   1.327       .  A
C333       C2574   1.517       .  S
O334       Zr346   2.428       .  S
O334        C336   1.284       .  A
O335       Zr349   2.347       .  S
O335        C336   1.275       .  A
O337       Zr346   2.367       .  S
O337        C339   1.261       .  A
O338       Zr350   2.589       .  S
O338        C339   1.309       .  A
C339       C2560   1.514       .  S
O340       Zr343   2.385       .  S
O340        C342   1.272       .  A
O341       Zr349   2.420       .  S
O341        C342   1.285       .  A
Zr343       O344   2.444       .  S
Zr343       O345   2.435       .  S
Zr343       O351   2.389       .  S
Zr343       O352   2.334       .  S
Zr343       O355   2.345       .  S
Zr343       O353   2.354       .  S
O344        H364   0.991       .  S
O344        H369   0.990       .  S
O345        H365   0.990       .  S
Zr346       O347   2.436       .  S
Zr346       O348   2.439       .  S
Zr346       O352   2.310       .  S
Zr346       O351   2.393       .  S
Zr346       O356   2.343       .  S
Zr346       O354   2.360       .  S
O347        H363   0.990       .  S
O348        H362   0.989       .  S
O348        H372   0.989       .  S
Zr349       O352   2.350       .  S
Zr349       O354   2.372       .  S
Zr349       O355   2.361       .  S
Zr350       O351   2.429       .  S
Zr350       O353   2.410       .  S
Zr350       O356   2.416       .  S
O351        H359   0.964       .  S
O354        H358   0.966       .  S
O355        H360   0.965       .  S
O373       Zr385   2.374       .  S
O373        C375   1.275       .  A
O374       Zr411   2.324       .  S
O374        C375   1.267       .  A
C375        C437   1.400       .  S
O376       Zr388   2.378       .  S
O376        C378   1.251       .  A
O377       Zr412   2.526       .  S
O377        C378   1.291       .  A
C378       C2504   1.500       .  S
O379       Zr388   2.415       .  S
O379        C381   1.281       .  A
O380       Zr411   2.346       .  S
O380        C381   1.272       .  A
C381        C691   1.427       .  S
O382       Zr385   2.371       .  S
O382        C384   1.257       .  A
O383       Zr412   2.592       .  S
O383        C384   1.310       .  A
C384       C2532   1.535       .  S
Zr385       O386   2.432       .  S
Zr385       O387   2.435       .  S
Zr385       O391   2.338       .  S
Zr385       O392   2.354       .  S
Zr385       O415   2.346       .  S
Zr385       O417   2.345       .  S
O386        H429   0.990       .  S
O387        H428   0.990       .  S
O387        H432   0.990       .  S
Zr388       O389   2.428       .  S
Zr388       O390   2.430   1_556  S
Zr388       O392   2.393       .  S
Zr388       O391   2.335       .  S
Zr388       O416   2.362   1_556  S
Zr388       O418   2.377   1_556  S
O389        H430   0.988       .  S
O389        H433   0.988       .  S
O390        H423   0.990       .  S
O391       Zr411   2.342       .  S
O392       Zr412   2.484       .  S
O392        H419   0.967       .  S
O393       Zr405   2.378       .  S
O393        C395   1.260       .  A
O394       Zr412   2.513       .  S
O394        C395   1.288       .  A
C395       C2490   1.487       .  S
O396       Zr408   2.390       .  S
O396        C398   1.278       .  A
O397       Zr411   2.334   1_554  S
O397        C398   1.268       .  A
C398        C561   1.414       .  S
O399       Zr408   2.367       .  S
O399        C401   1.259       .  A
O400       Zr412   2.579   1_554  S
O400        C401   1.304       .  A
C401       C2518   1.543       .  S
O402       Zr405   2.388       .  S
O402        C404   1.277       .  A
O403       Zr411   2.349       .  S
O403        C404   1.270       .  A
C404        C629   1.414       .  S
Zr405       O406   2.437   1_556  S
Zr405       O407   2.426       .  S
Zr405       O413   2.381   1_556  S
Zr405       O414   2.338   1_556  S
Zr405       O417   2.366       .  S
Zr405       O415   2.352       .  S
O406        H426   0.986       .  S
O406        H431   0.988       .  S
O407        H427   0.990       .  S
Zr408       O409   2.429       .  S
Zr408       O410   2.437       .  S
Zr408       O414   2.349       .  S
Zr408       O413   2.394       .  S
Zr408       O418   2.373       .  S
Zr408       O416   2.351       .  S
O409        H425   0.990       .  S
O410        H424   0.990       .  S
O410        H434   0.990       .  S
Zr411       O414   2.343   1_556  S
Zr411       O416   2.354   1_556  S
Zr411       O417   2.362       .  S
Zr412       O413   2.467   1_556  S
Zr412       O415   2.420       .  S
Zr412       O418   2.429   1_556  S
O413        H421   0.964       .  S
O416        H420   0.966       .  S
O417        H422   0.966       .  S
O435       Zr447   2.373       .  S
O435        C437   1.275       .  A
O436       Zr473   2.328   1_655  S
O436        C437   1.269       .  A
O438       Zr450   2.344   1_655  S
O438        C440   1.252   1_655  A
O439       Zr474   2.645       .  S
O439        C440   1.324       .  A
C440       C2448   1.541       .  S
O441       Zr450   2.407   1_655  S
O441        C443   1.277       .  A
O442       Zr473   2.347       .  S
O442        C443   1.272   1_455  A
C443        C623   1.421       .  S
O444       Zr447   2.371       .  S
O444        C446   1.259       .  A
O445       Zr474   2.595   1_655  S
O445        C446   1.312       .  A
C446       C2476   1.530       .  S
Zr447       O448   2.430       .  S
Zr447       O449   2.437       .  S
Zr447       O453   2.331       .  S
Zr447       O454   2.370       .  S
Zr447       O477   2.348       .  S
Zr447       O479   2.362       .  S
O448        H491   0.990       .  S
O449        H490   0.990       .  S
O449        H494   0.990       .  S
Zr450       O451   2.444   1_455  S
Zr450       O452   2.430       .  S
Zr450       O454   2.405   1_455  S
Zr450       O453   2.334   1_455  S
Zr450       O478   2.361       .  S
Zr450       O480   2.397       .  S
O451        H492   0.990       .  S
O451        H495   0.989       .  S
O452        H485   0.990       .  S
O453       Zr473   2.344   1_655  S
O454       Zr474   2.448   1_655  S
O454        H481   0.964       .  S
O455       Zr467   2.361   1_655  S
O455        C457   1.257   1_655  A
O456       Zr474   2.625       .  S
O456        C457   1.315       .  A
C457       C2462   1.551       .  S
O458       Zr470   2.410       .  S
O458        C460   1.278       .  A
O459       Zr473   2.346       .  S
O459        C460   1.272       .  A
C460        C499   1.421       .  S
O461       Zr470   2.337       .  S
O461        C463   1.253       .  A
O462       Zr474   2.607       .  S
O462        C463   1.318       .  A
C463       C2434   1.516       .  S
O464       Zr467   2.384       .  S
O464        C466   1.276       .  A
O465       Zr473   2.343       .  S
O465        C466   1.271       .  A
C466        C708   1.415       .  S
Zr467       O468   2.431       .  S
Zr467       O469   2.433   1_455  S
Zr467       O475   2.367       .  S
Zr467       O476   2.335       .  S
Zr467       O479   2.345   1_455  S
Zr467       O477   2.351   1_455  S
O468        H488   0.990       .  S
O468        H493   0.990       .  S
O469        H489   0.990       .  S
Zr470       O471   2.440       .  S
Zr470       O472   2.438       .  S
Zr470       O476   2.336       .  S
Zr470       O475   2.400       .  S
Zr470       O480   2.388       .  S
Zr470       O478   2.354       .  S
O471        H487   0.991       .  S
O472        H486   0.987       .  S
O472        H496   0.989       .  S
Zr473       O476   2.339       .  S
Zr473       O478   2.355       .  S
Zr473       O479   2.367   1_455  S
Zr474       O475   2.438       .  S
Zr474       O477   2.424   1_455  S
Zr474       O480   2.416       .  S
O475        H483   0.962       .  S
O478        H482   0.966       .  S
O479        H484   0.966       .  S
O497       Zr509   2.398       .  S
O497        C499   1.279       .  A
O498       Zr535   2.361       .  S
O498        C499   1.276       .  A
O500       Zr512   2.367       .  S
O500        C502   1.254       .  A
O501       Zr536   2.624       .  S
O501        C502   1.318       .  A
C502       C2420   1.541       .  S
O503       Zr512   2.393       .  S
O503        C505   1.279       .  A
O504       Zr535   2.333       .  S
O504        C505   1.271       .  A
C505        C652   1.410       .  S
O506       Zr509   2.399       .  S
O506        C508   1.262       .  A
O507       Zr536   2.563       .  S
O507        C508   1.306       .  A
C508       C2378   1.527       .  S
Zr509       O510   2.432       .  S
Zr509       O511   2.439       .  S
Zr509       O515   2.349       .  S
Zr509       O516   2.360       .  S
Zr509       O539   2.382       .  S
Zr509       O541   2.386       .  S
O510        H553   0.990       .  S
O511        H552   0.990       .  S
O511        H556   0.990       .  S
Zr512       O513   2.437       .  S
Zr512       O514   2.428       .  S
Zr512       O516   2.367       .  S
Zr512       O515   2.339       .  S
Zr512       O540   2.358   1_556  S
Zr512       O542   2.387   1_556  S
O513        H554   0.990       .  S
O513        H557   0.991       .  S
O514        H547   0.990   1_556  S
O515       Zr535   2.367       .  S
O516       Zr536   2.467       .  S
O516        H543   0.962       .  S
O517       Zr529   2.334       .  S
O517        C519   1.248   1_554  A
O518       Zr536   2.668       .  S
O518        C519   1.329       .  A
C519       C2406   1.550       .  S
O520       Zr532   2.406       .  S
O520        C522   1.281       .  A
O521       Zr535   2.354   1_554  S
O521        C522   1.275       .  A
C522        C584   1.427       .  S
O523       Zr532   2.396       .  S
O523        C525   1.266       .  A
O524       Zr536   2.574   1_554  S
O524        C525   1.308       .  A
C525       C2392   1.535       .  S
O526       Zr529   2.375       .  S
O526        C528   1.275       .  A
O527       Zr535   2.395       .  S
O527        C528   1.281   1_556  A
C528        C714   1.433       .  S
Zr529       O530   2.460       .  S
Zr529       O531   2.494   1_554  S
Zr529       O537   2.349       .  S
Zr529       O538   2.330       .  S
Zr529       O541   2.326   1_554  S
Zr529       O539   2.334   1_554  S
O530        H550   0.991       .  S
O530        H555   0.989       .  S
O531        H551   0.997       .  S
Zr532       O533   2.427       .  S
Zr532       O534   2.434       .  S
Zr532       O538   2.356       .  S
Zr532       O537   2.370       .  S
Zr532       O542   2.362       .  S
Zr532       O540   2.336       .  S
O533        H549   0.990       .  S
O534        H548   0.989       .  S
O534        H558   0.990       .  S
Zr535       O538   2.344   1_556  S
Zr535       O540   2.369   1_556  S
Zr535       O541   2.340       .  S
Zr536       O537   2.442   1_556  S
Zr536       O539   2.374       .  S
Zr536       O542   2.434   1_556  S
O537        H545   0.960       .  S
O540        H544   0.965       .  S
O541        H546   0.968       .  S
O559       Zr571   2.379       .  S
O559        C561   1.275       .  A
O560       Zr597   2.351   1_655  S
O560        C561   1.274       .  A
O562       Zr574   2.348   1_655  S
O562        C564   1.252   1_655  A
O563       Zr598   2.639       .  S
O563        C564   1.323       .  A
C564       C2350   1.534       .  S
O565       Zr574   2.413   1_655  S
O565        C567   1.278       .  A
O566       Zr597   2.344       .  S
O566        C567   1.273   1_455  A
C567        C685   1.423       .  S
O568       Zr571   2.363       .  S
O568        C570   1.255       .  A
O569       Zr598   2.601   1_655  S
O569        C570   1.308       .  A
C570       C2325   1.544       .  S
Zr571       O572   2.432       .  S
Zr571       O573   2.435       .  S
Zr571       O577   2.337       .  S
Zr571       O578   2.370       .  S
Zr571       O601   2.346       .  S
Zr571       O603   2.348       .  S
O572        H615   0.990       .  S
O573        H614   0.990       .  S
O573        H618   0.990       .  S
Zr574       O575   2.443   1_455  S
Zr574       O576   2.433       .  S
Zr574       O578   2.405   1_455  S
Zr574       O577   2.332   1_455  S
Zr574       O602   2.364       .  S
Zr574       O604   2.392       .  S
O575        H616   0.990       .  S
O575        H619   0.988   1_655  S
O576        H609   0.990       .  S
O577       Zr597   2.345   1_655  S
O578       Zr598   2.451   1_655  S
O578        H605   0.963       .  S
O579       Zr591   2.354   1_655  S
O579        C581   1.255       .  A
O580       Zr598   2.640       .  S
O580        C581   1.318   1_455  A
C581       C2364   1.561       .  S
O582       Zr594   2.406       .  S
O582        C584   1.278       .  A
O583       Zr597   2.363       .  S
O583        C584   1.275       .  A
O585       Zr594   2.335       .  S
O585        C587   1.251       .  A
O586       Zr598   2.622       .  S
O586        C587   1.319       .  A
C587       C2339   1.524       .  S
O588       Zr591   2.369       .  S
O588        C590   1.273       .  A
O589       Zr597   2.343       .  S
O589        C590   1.271       .  A
C590        C646   1.409       .  S
Zr591       O592   2.440       .  S
Zr591       O593   2.431   1_455  S
Zr591       O599   2.369       .  S
Zr591       O600   2.335       .  S
Zr591       O603   2.351   1_455  S
Zr591       O601   2.350   1_455  S
O592        H612   0.986       .  S
O592        H617   0.990       .  S
O593        H613   0.990       .  S
Zr594       O595   2.440       .  S
Zr594       O596   2.439       .  S
Zr594       O600   2.340       .  S
Zr594       O599   2.407       .  S
Zr594       O604   2.389       .  S
Zr594       O602   2.358       .  S
O595        H611   0.991       .  S
O596        H610   0.987       .  S
O596        H620   0.989       .  S
Zr597       O600   2.348       .  S
Zr597       O602   2.357       .  S
Zr597       O603   2.361   1_455  S
Zr598       O599   2.442       .  S
Zr598       O601   2.426   1_455  S
Zr598       O604   2.419       .  S
O599        H607   0.963       .  S
O602        H606   0.966       .  S
O603        H608   0.966       .  S
O621       Zr633   2.408       .  S
O621        C623   1.279       .  A
O622       Zr659   2.341       .  S
O622        C623   1.271   1_455  A
O624       Zr636   2.300       .  S
O624        C626   1.253       .  A
O625       Zr660   2.688       .  S
O625        C626   1.340       .  A
C626       C2266   1.531       .  S
O627       Zr636   2.375       .  S
O627        C629   1.275       .  A
O628       Zr659   2.350   1_655  S
O628        C629   1.271       .  A
O630       Zr633   2.344       .  S
O630        C632   1.255       .  A
O631       Zr660   2.625   1_455  S
O631        C632   1.322   1_455  A
C632       C2283   1.519   1_655  S
Zr633       O634   2.437       .  S
Zr633       O635   2.438   1_655  S
Zr633       O639   2.356       .  S
Zr633       O640   2.365       .  S
Zr633       O663   2.388   1_655  S
Zr633       O665   2.328   1_655  S
O634        H677   0.991       .  S
O635        H676   0.989       .  S
O635        H680   0.989       .  S
Zr636       O637   2.444       .  S
Zr636       O638   2.434   1_556  S
Zr636       O640   2.379       .  S
Zr636       O639   2.342       .  S
Zr636       O664   2.322   1_556  S
Zr636       O666   2.353   1_556  S
O637        H678   0.991       .  S
O637        H681   0.990       .  S
O638        H671   0.990       .  S
O639       Zr659   2.356   1_655  S
O640       Zr660   2.399       .  S
O640        H667   0.953       .  S
O641       Zr653   2.321       .  S
O641        C643   1.252       .  A
O642       Zr660   2.655   1_455  S
O642        C643   1.330       .  A
C643       C2294   1.522       .  S
O644       Zr656   2.381       .  S
O644        C646   1.277       .  A
O645       Zr659   2.340   1_554  S
O645        C646   1.269       .  A
O647       Zr656   2.380   1_655  S
O647        C649   1.262       .  A
O648       Zr660   2.588   1_554  S
O648        C649   1.311       .  A
C649       C2311   1.532       .  S
O650       Zr653   2.382       .  S
O650        C652   1.275       .  A
O651       Zr659   2.344       .  S
O651        C652   1.271       .  A
Zr653       O654   2.443   1_556  S
Zr653       O655   2.435       .  S
Zr653       O661   2.406   1_556  S
Zr653       O662   2.346   1_556  S
Zr653       O665   2.346       .  S
Zr653       O663   2.375       .  S
O654        H674   0.990       .  S
O654        H679   0.990   1_554  S
O655        H675   0.989       .  S
Zr656       O657   2.434       .  S
Zr656       O658   2.441   1_455  S
Zr656       O662   2.358       .  S
Zr656       O661   2.344       .  S
Zr656       O666   2.374   1_455  S
Zr656       O664   2.341   1_455  S
O657        H673   0.990       .  S
O658        H672   0.989       .  S
O658        H682   0.989       .  S
Zr659       O662   2.354   1_556  S
Zr659       O664   2.356   1_456  S
Zr659       O665   2.350       .  S
Zr660       O661   2.420   1_656  S
Zr660       O663   2.423   1_655  S
Zr660       O666   2.428   1_556  S
O661        H669   0.964       .  S
O664        H668   0.966       .  S
O665        H670   0.965       .  S
O683       Zr695   2.405   1_655  S
O683        C685   1.279       .  A
O684       Zr721   2.345   1_554  S
O684        C685   1.273   1_455  A
O686       Zr698   2.380       .  S
O686        C688   1.262       .  A
O687       Zr722   2.603   1_654  S
O687        C688   1.313   1_554  A
C688       C2210   1.550       .  S
O689       Zr698   2.390       .  S
O689        C691   1.276       .  A
O690       Zr721   2.378   1_655  S
O690        C691   1.279       .  A
O692       Zr695   2.366   1_655  S
O692        C694   1.255   1_655  A
O693       Zr722   2.580   1_554  S
O693        C694   1.308       .  A
C694       C2252   1.519       .  S
Zr695       O696   2.434   1_455  S
Zr695       O697   2.436       .  S
Zr695       O701   2.359   1_455  S
Zr695       O702   2.381   1_455  S
Zr695       O725   2.375       .  S
Zr695       O727   2.352       .  S
O696        H739   0.990       .  S
O697        H738   0.990       .  S
O697        H742   0.990       .  S
Zr698       O699   2.435   1_556  S
Zr698       O700   2.434       .  S
Zr698       O702   2.367   1_556  S
Zr698       O701   2.351   1_556  S
Zr698       O726   2.351       .  S
Zr698       O728   2.359       .  S
O699        H740   0.987       .  S
O699        H743   0.987       .  S
O700        H733   0.990       .  S
O701       Zr721   2.356   1_654  S
O702       Zr722   2.463   1_654  S
O702        H729   0.961       .  S
O703       Zr715   2.375       .  S
O703        C705   1.263       .  A
O704       Zr722   2.593   1_554  S
O704        C705   1.310       .  A
C705       C2224   1.546       .  S
O706       Zr718   2.397       .  S
O706        C708   1.279       .  A
O707       Zr721   2.343       .  S
O707        C708   1.271       .  A
O709       Zr718   2.372       .  S
O709        C711   1.261       .  A
O710       Zr722   2.584       .  S
O710        C711   1.308       .  A
C711       C2241   1.518       .  S
O712       Zr715   2.417       .  S
O712        C714   1.284       .  A
O713       Zr721   2.360   1_554  S
O713        C714   1.274       .  A
Zr715       O716   2.440   1_554  S
Zr715       O717   2.435       .  S
Zr715       O723   2.395   1_554  S
Zr715       O724   2.350   1_554  S
Zr715       O727   2.358       .  S
Zr715       O725   2.384       .  S
O716        H736   0.987       .  S
O716        H741   0.990       .  S
O717        H737   0.990       .  S
Zr718       O719   2.437       .  S
Zr718       O720   2.439       .  S
Zr718       O724   2.345       .  S
Zr718       O723   2.369       .  S
Zr718       O728   2.362   1_455  S
Zr718       O726   2.350   1_455  S
O719        H735   0.990       .  S
O720        H734   0.989       .  S
O720        H744   0.988       .  S
Zr721       O724   2.362       .  S
Zr721       O726   2.357   1_455  S
Zr721       O727   2.364   1_556  S
Zr722       O723   2.459       .  S
Zr722       O725   2.424   1_556  S
Zr722       O728   2.415   1_455  S
O723        H731   0.964       .  S
O726        H730   0.964       .  S
O727        H732   0.966       .  S
O745       Zr757   2.394   1_554  S
O745        C747   1.271       .  A
O746       Zr783   2.407       .  S
O746        C747   1.285   1_556  A
C747       C1063   1.421       .  S
O748       Zr760   2.407       .  S
O748        C750   1.270       .  A
O749       Zr784   2.519       .  S
O749        C750   1.302       .  A
C750       C2196   1.490       .  S
O751       Zr760   2.431       .  S
O751        C753   1.283       .  A
O752       Zr783   2.461       .  S
O752        C753   1.298       .  A
C753        C815   1.478       .  S
O754       Zr757   2.380   1_554  S
O754        C756   1.262       .  A
O755       Zr784   2.552       .  S
O755        C756   1.301   1_556  A
C756       C2168   1.523   1_554  S
Zr757       O758   2.435       .  S
Zr757       O759   2.438   1_556  S
Zr757       O763   2.355       .  S
Zr757       O764   2.356       .  S
Zr757       O787   2.378   1_556  S
Zr757       O789   2.330   1_556  S
O758        H801   0.990       .  S
O759        H800   0.990       .  S
O759        H804   0.991       .  S
Zr760       O761   2.441       .  S
Zr760       O762   2.432       .  S
Zr760       O764   2.392       .  S
Zr760       O763   2.361       .  S
Zr760       O788   2.375       .  S
Zr760       O790   2.368       .  S
O761        H802   0.990       .  S
O761        H805   0.991       .  S
O762        H795   0.990       .  S
O763       Zr783   2.386       .  S
O764       Zr784   2.453       .  S
O764        H791   0.964       .  S
O765       Zr777   2.392       .  S
O765        C767   1.266       .  A
O766       Zr784   2.541   1_554  S
O766        C767   1.304       .  A
C767       C2182   1.503       .  S
O768       Zr780   2.398       .  S
O768        C770   1.279       .  A
O769       Zr783   2.491       .  S
O769        C770   1.300       .  A
C770       C1001   1.482       .  S
O771       Zr780   2.410       .  S
O771        C773   1.271       .  A
O772       Zr784   2.572       .  S
O772        C773   1.313       .  A
C773       C2154   1.528       .  S
O774       Zr777   2.367       .  S
O774        C776   1.273       .  A
O775       Zr783   2.471   1_554  S
O775        C776   1.297       .  A
C776        C933   1.431       .  S
Zr777       O778   2.434       .  S
Zr777       O779   2.425       .  S
Zr777       O785   2.343       .  S
Zr777       O786   2.351       .  S
Zr777       O789   2.356       .  S
Zr777       O787   2.357       .  S
O778        H798   0.990       .  S
O778        H803   0.990       .  S
O779        H799   0.990       .  S
Zr780       O781   2.429       .  S
Zr780       O782   2.436       .  S
Zr780       O786   2.369   1_556  S
Zr780       O785   2.367   1_556  S
Zr780       O790   2.367       .  S
Zr780       O788   2.357       .  S
O781        H797   0.990   1_556  S
O782        H796   0.990       .  S
O782        H806   0.990       .  S
Zr783       O786   2.372   1_556  S
Zr783       O788   2.394       .  S
Zr783       O789   2.380   1_556  S
Zr784       O785   2.424   1_556  S
Zr784       O787   2.413   1_556  S
Zr784       O790   2.428       .  S
O785        H793   0.959       .  S
O788        H792   0.966       .  S
O789        H794   0.962       .  S
O807       Zr819   2.376       .  S
O807        C809   1.272       .  A
O808       Zr845   2.484       .  S
O808        C809   1.299   1_565  A
C809       C1060   1.458       .  S
O810       Zr822   2.339       .  S
O810        C812   1.265   1_565  A
O811       Zr846   2.415       .  S
O811        C812   1.282       .  A
C812       C1018   1.417       .  S
O813       Zr822   2.389       .  S
O813        C815   1.267       .  A
O814       Zr845   2.491       .  S
O814        C815   1.291       .  A
O816       Zr819   2.383       .  S
O816        C818   1.266       .  A
O817       Zr846   2.435       .  S
O817        C818   1.279       .  A
C818        C877   1.449       .  S
Zr819       O820   2.440       .  S
Zr819       O821   2.441       .  S
Zr819       O825   2.347   1_545  S
Zr819       O826   2.362       .  S
Zr819       O849   2.351       .  S
Zr819       O851   2.368       .  S
O820        H863   0.990       .  S
O821        H862   0.990       .  S
O821        H866   0.990       .  S
Zr822       O823   2.441       .  S
Zr822       O824   2.439       .  S
Zr822       O826   2.365   1_565  S
Zr822       O825   2.354       .  S
Zr822       O850   2.335       .  S
Zr822       O852   2.364       .  S
O823        H864   0.990       .  S
O823        H867   0.990       .  S
O824        H857   0.990       .  S
O825       Zr845   2.371       .  S
O826       Zr846   2.396       .  S
O826        H853   0.966       .  S
O827       Zr839   2.473       .  S
O827        C829   1.294       .  A
O828       Zr846   2.419       .  S
O828        C829   1.286       .  A
C829       C2126   1.488       .  S
O830       Zr842   2.420       .  S
O830        C832   1.286       .  A
O831       Zr845   2.458       .  S
O831        C832   1.295       .  A
C832       C2140   1.496       .  S
O833       Zr842   2.453       .  S
O833        C835   1.289       .  A
O834       Zr846   2.399       .  S
O834        C835   1.283   1_545  A
C835       C2115   1.473       .  S
O836       Zr839   2.469       .  S
O836        C838   1.291   1_545  A
O837       Zr845   2.405       .  S
O837        C838   1.284       .  A
C838       C2101   1.479   1_565  S
Zr839       O840   2.433       .  S
Zr839       O841   2.434       .  S
Zr839       O847   2.374       .  S
Zr839       O848   2.373   1_545  S
Zr839       O851   2.381       .  S
Zr839       O849   2.367       .  S
O840        H860   0.990       .  S
O840        H865   0.990       .  S
O841        H861   0.990       .  S
Zr842       O843   2.433       .  S
Zr842       O844   2.438       .  S
Zr842       O848   2.372       .  S
Zr842       O847   2.370   1_565  S
Zr842       O852   2.363       .  S
Zr842       O850   2.388       .  S
O843        H859   0.990       .  S
O844        H858   0.990       .  S
O844        H868   0.990       .  S
Zr845       O848   2.414       .  S
Zr845       O850   2.393       .  S
Zr845       O851   2.406   1_565  S
Zr846       O847   2.405       .  S
Zr846       O849   2.382       .  S
Zr846       O852   2.384   1_545  S
O847        H855   0.966       .  S
O850        H854   0.964       .  S
O851        H856   0.960       .  S
O869       Zr881   2.382       .  S
O869        C871   1.274       .  A
O870       Zr907   2.355       .  S
O870        C871   1.277       .  A
C871       C1024   1.415       .  S
O872       Zr884   2.422       .  S
O872        C874   1.272       .  A
O873       Zr908   2.395       .  S
O873        C874   1.265       .  A
C874       C2070   1.445       .  S
O875       Zr884   2.406       .  S
O875        C877   1.279       .  A
O876       Zr907   2.451       .  S
O876        C877   1.292       .  A
O878       Zr881   2.361   1_554  S
O878        C880   1.260       .  A
O879       Zr908   2.587       .  S
O879        C880   1.309   1_556  A
C880       C2056   1.513   1_554  S
Zr881       O882   2.430       .  S
Zr881       O883   2.438       .  S
Zr881       O887   2.324       .  S
Zr881       O888   2.375       .  S
Zr881       O911   2.365   1_556  S
Zr881       O913   2.356   1_556  S
O882        H925   0.990       .  S
O883        H924   0.990   1_556  S
O883        H928   0.990       .  S
Zr884       O885   2.424       .  S
Zr884       O886   2.429       .  S
Zr884       O888   2.373       .  S
Zr884       O887   2.356       .  S
Zr884       O912   2.369       .  S
Zr884       O914   2.354       .  S
O885        H926   0.989       .  S
O885        H929   0.989       .  S
O886        H919   0.990       .  S
O887       Zr907   2.366       .  S
O888       Zr908   2.442       .  S
O888        H915   0.964       .  S
O889       Zr901   2.434       .  S
O889        C891   1.274       .  A
O890       Zr908   2.386   1_554  S
O890        C891   1.271       .  A
C891       C2087   1.446       .  S
O892       Zr904   2.463       .  S
O892        C894   1.288       .  A
O893       Zr907   2.442       .  S
O893        C894   1.293       .  A
C894       C1066   1.474       .  S
O895       Zr904   2.376   1_554  S
O895        C897   1.268       .  A
O896       Zr908   2.554       .  S
O896        C897   1.306   1_556  A
C897       C2042   1.491   1_554  S
O898       Zr901   2.384       .  S
O898        C900   1.272       .  A
O899       Zr907   2.494   1_554  S
O899        C900   1.304       .  A
C900        C936   1.460       .  S
Zr901       O902   2.438       .  S
Zr901       O903   2.434       .  S
Zr901       O909   2.352       .  S
Zr901       O910   2.390       .  S
Zr901       O913   2.392       .  S
Zr901       O911   2.343       .  S
O902        H922   0.989       .  S
O902        H927   0.990       .  S
O903        H923   0.990       .  S
Zr904       O905   2.435   1_556  S
Zr904       O906   2.420       .  S
Zr904       O910   2.350   1_556  S
Zr904       O909   2.417   1_556  S
Zr904       O914   2.390       .  S
Zr904       O912   2.358       .  S
O905        H921   0.990       .  S
O906        H920   0.988       .  S
O906        H930   0.989       .  S
Zr907       O910   2.366   1_556  S
Zr907       O912   2.369       .  S
Zr907       O913   2.380   1_556  S
Zr908       O909   2.442   1_556  S
Zr908       O911   2.395   1_556  S
Zr908       O914   2.437       .  S
O909        H917   0.965       .  S
O912        H916   0.965       .  S
O913        H918   0.964       .  S
O931       Zr943   2.323       .  S
O931        C933   1.255       .  A
O932       Zr969   2.484       .  S
O932        C933   1.287       .  A
O934       Zr946   2.380       .  S
O934        C936   1.270       .  A
O935       Zr970   2.489       .  S
O935        C936   1.299       .  A
O937       Zr946   2.369   1_565  S
O937        C939   1.266       .  A
O938       Zr969   2.456       .  S
O938        C939   1.279       .  A
C939       C1057   1.472       .  S
O940       Zr943   2.338       .  S
O940        C942   1.268   1_565  A
O941       Zr970   2.438       .  S
O941        C942   1.288       .  A
C942        C995   1.423       .  S
Zr943       O944   2.435       .  S
Zr943       O945   2.435       .  S
Zr943       O949   2.371       .  S
Zr943       O950   2.335   1_565  S
Zr943       O973   2.323       .  S
Zr943       O975   2.337       .  S
O944        H987   0.990       .  S
O945        H986   0.990       .  S
O945        H990   0.990       .  S
Zr946       O947   2.418       .  S
Zr946       O948   2.437       .  S
Zr946       O950   2.337       .  S
Zr946       O949   2.357   1_545  S
Zr946       O974   2.335   1_545  S
Zr946       O976   2.342       .  S
O947        H988   0.991       .  S
O947        H991   0.988       .  S
O948        H981   0.990       .  S
O949       Zr969   2.375       .  S
O950       Zr970   2.349       .  S
O950        H977   0.961       .  S
O951       Zr963   2.450       .  S
O951        C953   1.291       .  A
O952       Zr970   2.411       .  S
O952        C953   1.287   1_545  A
C953       C2017   1.482       .  S
O954       Zr966   2.439   1_565  S
O954        C956   1.287       .  A
O955       Zr969   2.401       .  S
O955        C956   1.285       .  A
C956       C2028   1.465       .  S
O957       Zr966   2.456       .  S
O957        C959   1.290       .  A
O958       Zr970   2.411       .  S
O958        C959   1.284       .  A
C959       C1986   1.473       .  S
O960       Zr963   2.486       .  S
O960        C962   1.297       .  A
O961       Zr969   2.397       .  S
O961        C962   1.284       .  A
C962       C2000   1.475       .  S
Zr963       O964   2.432       .  S
Zr963       O965   2.434       .  S
Zr963       O971   2.386   1_565  S
Zr963       O972   2.370       .  S
Zr963       O975   2.365       .  S
Zr963       O973   2.383       .  S
O964        H984   0.990       .  S
O964        H989   0.990       .  S
O965        H985   0.990       .  S
Zr966       O967   2.433       .  S
Zr966       O968   2.437       .  S
Zr966       O972   2.382   1_545  S
Zr966       O971   2.364       .  S
Zr966       O976   2.377       .  S
Zr966       O974   2.386   1_545  S
O967        H983   0.990       .  S
O968        H982   0.990       .  S
O968        H992   0.990       .  S
Zr969       O972   2.418       .  S
Zr969       O974   2.416       .  S
Zr969       O975   2.399       .  S
Zr970       O971   2.423       .  S
Zr970       O973   2.391   1_545  S
Zr970       O976   2.380       .  S
O971        H979   0.966       .  S
O974        H978   0.965   1_565  S
O975        H980   0.962       .  S
O993      Zr1005   2.362       .  S
O993        C995   1.266       .  A
O994      Zr1031   2.422   1_544  S
O994        C995   1.289       .  A
O996      Zr1008   2.380   1_554  S
O996        C998   1.262   1_554  A
O997      Zr1032   2.567       .  S
O997        C998   1.310       .  A
C998       C1930   1.505       .  S
O999      Zr1008   2.483       .  S
O999       C1001   1.298       .  A
O1000     Zr1031   2.407       .  S
O1000      C1001   1.278       .  A
O1002     Zr1005   2.368       .  S
O1002      C1004   1.274   1_545  A
O1003     Zr1032   2.547   1_554  S
O1003      C1004   1.313       .  A
C1004      C1972   1.494       .  S
Zr1005     O1006   2.436   1_545  S
Zr1005     O1007   2.438       .  S
Zr1005     O1011   2.381   1_545  S
Zr1005     O1012   2.348   1_545  S
Zr1005     O1035   2.308       .  S
Zr1005     O1037   2.359       .  S
O1006      H1049   0.990       .  S
O1007      H1048   0.990       .  S
O1007      H1052   0.990       .  S
Zr1008     O1009   2.436   1_556  S
Zr1008     O1010   2.431       .  S
Zr1008     O1012   2.409   1_556  S
Zr1008     O1011   2.346   1_556  S
Zr1008     O1036   2.348       .  S
Zr1008     O1038   2.401       .  S
O1009      H1050   0.990       .  S
O1009      H1053   0.991       .  S
O1010      H1043   0.990       .  S
O1011     Zr1031   2.353   1_554  S
O1012     Zr1032   2.437   1_554  S
O1012      H1039   0.963       .  S
O1013     Zr1025   2.377   1_554  S
O1013      C1015   1.264   1_554  A
O1014     Zr1032   2.602   1_545  S
O1014      C1015   1.308       .  A
C1015      C1944   1.525       .  S
O1016     Zr1028   2.412       .  S
O1016      C1018   1.277   1_565  A
O1017     Zr1031   2.386       .  S
O1017      C1018   1.283   1_565  A
O1019     Zr1028   2.402       .  S
O1019      C1021   1.268       .  A
O1020     Zr1032   2.533       .  S
O1020      C1021   1.299       .  A
C1021      C1958   1.517       .  S
O1022     Zr1025   2.428       .  S
O1022      C1024   1.286       .  A
O1023     Zr1031   2.314   1_545  S
O1023      C1024   1.268       .  A
Zr1025     O1026   2.436       .  S
Zr1025     O1027   2.432       .  S
Zr1025     O1033   2.381       .  S
Zr1025     O1034   2.305       .  S
Zr1025     O1037   2.353   1_556  S
Zr1025     O1035   2.356   1_556  S
O1026      H1046   0.987       .  S
O1026      H1051   0.990       .  S
O1027      H1047   0.990       .  S
Zr1028     O1029   2.431       .  S
Zr1028     O1030   2.435       .  S
Zr1028     O1034   2.351   1_565  S
Zr1028     O1033   2.389   1_565  S
Zr1028     O1038   2.363       .  S
Zr1028     O1036   2.374       .  S
O1029      H1045   0.990   1_565  S
O1030      H1044   0.990       .  S
O1030      H1054   0.990       .  S
Zr1031     O1034   2.356   1_565  S
Zr1031     O1036   2.367       .  S
Zr1031     O1037   2.366   1_566  S
Zr1032     O1033   2.450   1_565  S
Zr1032     O1035   2.375   1_566  S
Zr1032     O1038   2.430       .  S
O1033      H1041   0.963       .  S
O1036      H1040   0.966       .  S
O1037      H1042   0.965       .  S
O1055     Zr1067   2.380   1_565  S
O1055      C1057   1.281       .  A
O1056     Zr1093   2.464       .  S
O1056      C1057   1.287       .  A
O1058     Zr1070   2.404       .  S
O1058      C1060   1.271   1_565  A
O1059     Zr1094   2.434       .  S
O1059      C1060   1.291       .  A
O1061     Zr1070   2.396       .  S
O1061      C1063   1.273   1_556  A
O1062     Zr1093   2.404       .  S
O1062      C1063   1.278       .  A
O1064     Zr1067   2.349       .  S
O1064      C1066   1.270   1_554  A
O1065     Zr1094   2.534       .  S
O1065      C1066   1.308       .  A
Zr1067     O1068   2.435   1_545  S
Zr1067     O1069   2.441       .  S
Zr1067     O1073   2.320   1_545  S
Zr1067     O1074   2.363   1_554  S
Zr1067     O1097   2.341       .  S
Zr1067     O1099   2.358       .  S
O1068      H1111   0.991       .  S
O1069      H1110   0.988       .  S
O1069      H1114   0.989       .  S
Zr1070     O1071   2.426       .  S
Zr1070     O1072   2.435       .  S
Zr1070     O1074   2.359   1_565  S
Zr1070     O1073   2.361   1_556  S
Zr1070     O1098   2.351       .  S
Zr1070     O1100   2.361       .  S
O1071      H1112   0.989       .  S
O1071      H1115   0.988       .  S
O1072      H1105   0.990       .  S
O1073     Zr1093   2.358       .  S
O1074     Zr1094   2.355       .  S
O1074      H1101   0.965       .  S
O1075     Zr1087   2.446       .  S
O1075      C1077   1.288   1_554  A
O1076     Zr1094   2.376       .  S
O1076      C1077   1.282       .  A
C1077      C1874   1.463       .  S
O1078     Zr1090   2.480       .  S
O1078      C1080   1.297   1_556  A
O1079     Zr1093   2.394       .  S
O1079      C1080   1.282       .  A
C1080      C1888   1.467       .  S
O1081     Zr1090   2.417   1_545  S
O1081      C1083   1.289       .  A
O1082     Zr1094   2.409       .  S
O1082      C1083   1.287       .  A
C1083      C1902   1.470       .  S
O1084     Zr1087   2.400       .  S
O1084      C1086   1.281   1_545  A
O1085     Zr1093   2.374       .  S
O1085      C1086   1.283       .  A
C1086      C1916   1.447       .  S
Zr1087     O1088   2.439       .  S
Zr1087     O1089   2.434       .  S
Zr1087     O1095   2.331   1_554  S
Zr1087     O1096   2.371   1_545  S
Zr1087     O1099   2.369       .  S
Zr1087     O1097   2.356       .  S
O1088      H1108   0.990       .  S
O1088      H1113   0.990       .  S
O1089      H1109   0.990       .  S
Zr1090     O1091   2.434       .  S
Zr1090     O1092   2.433       .  S
Zr1090     O1096   2.332   1_556  S
Zr1090     O1095   2.392   1_565  S
Zr1090     O1100   2.372       .  S
Zr1090     O1098   2.364       .  S
O1091      H1107   0.990   1_556  S
O1092      H1106   0.990       .  S
O1092      H1116   0.990       .  S
Zr1093     O1096   2.375       .  S
Zr1093     O1098   2.397   1_554  S
Zr1093     O1099   2.377   1_565  S
Zr1094     O1095   2.401       .  S
Zr1094     O1097   2.353   1_556  S
Zr1094     O1100   2.396   1_545  S
O1095      H1103   0.964       .  S
O1098      H1102   0.962       .  S
O1099      H1104   0.966       .  S
O1117     Zr1129   2.433       .  S
O1117      C1119   1.283       .  A
O1118     Zr1155   2.405   1_655  S
O1118      C1119   1.286       .  A
C1119      C1187   1.457       .  S
O1120     Zr1132   2.392   1_455  S
O1120      C1122   1.266       .  A
O1121     Zr1156   2.581       .  S
O1121      C1122   1.309       .  A
C1122      C1849   1.503       .  S
O1123     Zr1132   2.425       .  S
O1123      C1125   1.283       .  A
O1124     Zr1155   2.367   1_655  S
O1124      C1125   1.275       .  A
C1125      C1435   1.441       .  S
O1126     Zr1129   2.399       .  S
O1126      C1128   1.266       .  A
O1127     Zr1156   2.539   1_655  S
O1127      C1128   1.300       .  A
C1128      C1863   1.522       .  S
Zr1129     O1130   2.430       .  S
Zr1129     O1131   2.439       .  S
Zr1129     O1135   2.380       .  S
Zr1129     O1136   2.402       .  S
Zr1129     O1159   2.377       .  S
Zr1129     O1161   2.358       .  S
O1130      H1173   0.990       .  S
O1131      H1172   0.990       .  S
O1131      H1176   0.990       .  S
Zr1132     O1133   2.433       .  S
Zr1132     O1134   2.433       .  S
Zr1132     O1136   2.384       .  S
Zr1132     O1135   2.343       .  S
Zr1132     O1160   2.361   1_655  S
Zr1132     O1162   2.359   1_655  S
O1133      H1174   0.989       .  S
O1133      H1177   0.990       .  S
O1134      H1167   0.990   1_655  S
O1135     Zr1155   2.351   1_655  S
O1136     Zr1156   2.466   1_655  S
O1136      H1163   0.962       .  S
O1137     Zr1149   2.380       .  S
O1137      C1139   1.258       .  A
O1138     Zr1156   2.570       .  S
O1138      C1139   1.307       .  A
C1139      C1835   1.513       .  S
O1140     Zr1152   2.385       .  S
O1140      C1142   1.276       .  A
O1141     Zr1155   2.416       .  S
O1141      C1142   1.285       .  A
C1142      C1249   1.427       .  S
O1143     Zr1152   2.408       .  S
O1143      C1145   1.268       .  A
O1144     Zr1156   2.558       .  S
O1144      C1145   1.307       .  A
C1145      C1818   1.525       .  S
O1146     Zr1149   2.429       .  S
O1146      C1148   1.285       .  A
O1147     Zr1155   2.311       .  S
O1147      C1148   1.268       .  A
C1148      C1373   1.417       .  S
Zr1149     O1150   2.440       .  S
Zr1149     O1151   2.430   1_455  S
Zr1149     O1157   2.394       .  S
Zr1149     O1158   2.317       .  S
Zr1149     O1161   2.355   1_455  S
Zr1149     O1159   2.374   1_455  S
O1150      H1170   0.990       .  S
O1150      H1175   0.990       .  S
O1151      H1171   0.990       .  S
Zr1152     O1153   2.435       .  S
Zr1152     O1154   2.437       .  S
Zr1152     O1158   2.343       .  S
Zr1152     O1157   2.376       .  S
Zr1152     O1162   2.315       .  S
Zr1152     O1160   2.370       .  S
O1153      H1169   0.990       .  S
O1154      H1168   0.990       .  S
O1154      H1178   0.990       .  S
Zr1155     O1158   2.354       .  S
Zr1155     O1160   2.361       .  S
Zr1155     O1161   2.370   1_455  S
Zr1156     O1157   2.454       .  S
Zr1156     O1159   2.424   1_455  S
Zr1156     O1162   2.383       .  S
O1157      H1165   0.962       .  S
O1160      H1164   0.965       .  S
O1161      H1166   0.966       .  S
O1179     Zr1191   2.377   1_565  S
O1179      C1181   1.272       .  A
O1180     Zr1217   2.467       .  S
O1180      C1181   1.289       .  A
C1181      C1367   1.453       .  S
O1182     Zr1194   2.354       .  S
O1182      C1184   1.268   1_565  A
O1183     Zr1218   2.446       .  S
O1183      C1184   1.286       .  A
C1184      C1452   1.444       .  S
O1185     Zr1194   2.397       .  S
O1185      C1187   1.271       .  A
O1186     Zr1217   2.443       .  S
O1186      C1187   1.282       .  A
O1188     Zr1191   2.354       .  S
O1188      C1190   1.271       .  A
O1189     Zr1218   2.425       .  S
O1189      C1190   1.284       .  A
C1190      C1311   1.420       .  S
Zr1191     O1192   2.433       .  S
Zr1191     O1193   2.435       .  S
Zr1191     O1197   2.338   1_545  S
Zr1191     O1198   2.359       .  S
Zr1191     O1221   2.340       .  S
Zr1191     O1223   2.335   1_545  S
O1192      H1235   0.990       .  S
O1193      H1234   0.990       .  S
O1193      H1238   0.990       .  S
Zr1194     O1195   2.417       .  S
Zr1194     O1196   2.439       .  S
Zr1194     O1198   2.352   1_565  S
Zr1194     O1197   2.336       .  S
Zr1194     O1222   2.326       .  S
Zr1194     O1224   2.354       .  S
O1195      H1236   0.990       .  S
O1195      H1239   0.988       .  S
O1196      H1229   0.991       .  S
O1197     Zr1217   2.353       .  S
O1198     Zr1218   2.373       .  S
O1198      H1225   0.965       .  S
O1199     Zr1211   2.491       .  S
O1199      C1201   1.298       .  A
O1200     Zr1218   2.404       .  S
O1200      C1201   1.283       .  A
C1201      C1762   1.492       .  S
O1202     Zr1214   2.462       .  S
O1202      C1204   1.290       .  A
O1203     Zr1217   2.398       .  S
O1203      C1204   1.283       .  A
C1204      C1804   1.481       .  S
O1205     Zr1214   2.447       .  S
O1205      C1207   1.287       .  A
O1206     Zr1218   2.385       .  S
O1206      C1207   1.278   1_545  A
C1207      C1790   1.472   1_565  S
O1208     Zr1211   2.458   1_565  S
O1208      C1210   1.293       .  A
O1209     Zr1217   2.358       .  S
O1209      C1210   1.276       .  A
C1210      C1776   1.457       .  S
Zr1211     O1212   2.433       .  S
Zr1211     O1213   2.434       .  S
Zr1211     O1219   2.374       .  S
Zr1211     O1220   2.384   1_545  S
Zr1211     O1223   2.387   1_545  S
Zr1211     O1221   2.361       .  S
O1212      H1232   0.990       .  S
O1212      H1237   0.990   1_545  S
O1213      H1233   0.990       .  S
Zr1214     O1215   2.433       .  S
Zr1214     O1216   2.436       .  S
Zr1214     O1220   2.369       .  S
Zr1214     O1219   2.389   1_565  S
Zr1214     O1224   2.381       .  S
Zr1214     O1222   2.388       .  S
O1215      H1231   0.990       .  S
O1216      H1230   0.990       .  S
O1216      H1240   0.990       .  S
Zr1217     O1220   2.401       .  S
Zr1217     O1222   2.383       .  S
Zr1217     O1223   2.398       .  S
Zr1218     O1219   2.407       .  S
Zr1218     O1221   2.376       .  S
Zr1218     O1224   2.389   1_545  S
O1219      H1227   0.966       .  S
O1222      H1226   0.964       .  S
O1223      H1228   0.964       .  S
O1241     Zr1253   2.445       .  S
O1241      C1243   1.288       .  A
O1242     Zr1279   2.335   1_545  S
O1242      C1243   1.268       .  A
C1243      C1390   1.430       .  S
O1244     Zr1256   2.371       .  S
O1244      C1246   1.259       .  A
O1245     Zr1280   2.607   1_565  S
O1245      C1246   1.317       .  A
C1246      C1737   1.529       .  S
O1247     Zr1256   2.419       .  S
O1247      C1249   1.285       .  A
O1248     Zr1279   2.342       .  S
O1248      C1249   1.268       .  A
O1250     Zr1253   2.393       .  S
O1250      C1252   1.266       .  A
O1251     Zr1280   2.568   1_565  S
O1251      C1252   1.308   1_565  A
C1252      C1751   1.534       .  S
Zr1253     O1254   2.431   1_545  S
Zr1253     O1255   2.437       .  S
Zr1253     O1259   2.356   1_545  S
Zr1253     O1260   2.371   1_545  S
Zr1253     O1283   2.371       .  S
Zr1253     O1285   2.348       .  S
O1254      H1297   0.990       .  S
O1255      H1296   0.990       .  S
O1255      H1300   0.990       .  S
Zr1256     O1257   2.438       .  S
Zr1256     O1258   2.431       .  S
Zr1256     O1260   2.373       .  S
Zr1256     O1259   2.353       .  S
Zr1256     O1284   2.341       .  S
Zr1256     O1286   2.388       .  S
O1257      H1298   0.990       .  S
O1257      H1301   0.991       .  S
O1258      H1291   0.990       .  S
O1259     Zr1279   2.362       .  S
O1260     Zr1280   2.458   1_565  S
O1260      H1287   0.961       .  S
O1261     Zr1273   2.365       .  S
O1261      C1263   1.261       .  A
O1262     Zr1280   2.621       .  S
O1262      C1263   1.314       .  A
C1263      C1720   1.548       .  S
O1264     Zr1276   2.431       .  S
O1264      C1266   1.285       .  A
O1265     Zr1279   2.337       .  S
O1265      C1266   1.270       .  A
C1266      C1429   1.425       .  S
O1267     Zr1276   2.394       .  S
O1267      C1269   1.266       .  A
O1268     Zr1280   2.567       .  S
O1268      C1269   1.307   1_545  A
C1269      C1706   1.531       .  S
O1270     Zr1273   2.411       .  S
O1270      C1272   1.283       .  A
O1271     Zr1279   2.347   1_545  S
O1271      C1272   1.268       .  A
C1272      C1334   1.421       .  S
Zr1273     O1274   2.439       .  S
Zr1273     O1275   2.438       .  S
Zr1273     O1281   2.378       .  S
Zr1273     O1282   2.346       .  S
Zr1273     O1285   2.355       .  S
Zr1273     O1283   2.368       .  S
O1274      H1294   0.988       .  S
O1274      H1299   0.990       .  S
O1275      H1295   0.990       .  S
Zr1276     O1277   2.431   1_565  S
Zr1276     O1278   2.440       .  S
Zr1276     O1282   2.365   1_565  S
Zr1276     O1281   2.391   1_565  S
Zr1276     O1286   2.387       .  S
Zr1276     O1284   2.356       .  S
O1277      H1293   0.990       .  S
O1278      H1292   0.990       .  S
O1278      H1302   0.990       .  S
Zr1279     O1282   2.357   1_565  S
Zr1279     O1284   2.360       .  S
Zr1279     O1285   2.363   1_565  S
Zr1280     O1281   2.451       .  S
Zr1280     O1283   2.413       .  S
Zr1280     O1286   2.424   1_545  S
O1281      H1289   0.965       .  S
O1284      H1288   0.965       .  S
O1285      H1290   0.964       .  S
O1303     Zr1315   2.424       .  S
O1303      C1305   1.282       .  A
O1304     Zr1341   2.351   1_455  S
O1304      C1305   1.274       .  A
C1305      C1458   1.428       .  S
O1306     Zr1318   2.392       .  S
O1306      C1308   1.264       .  A
O1307     Zr1342   2.451   1_655  S
O1307      C1308   1.266       .  A
C1308      C1664   1.455       .  S
O1309     Zr1318   2.393       .  S
O1309      C1311   1.274       .  A
O1310     Zr1341   2.393       .  S
O1310      C1311   1.282       .  A
O1312     Zr1315   2.363       .  S
O1312      C1314   1.258       .  A
O1313     Zr1342   2.580       .  S
O1313      C1314   1.305       .  A
C1314      C1650   1.533       .  S
Zr1315     O1316   2.429   1_455  S
Zr1315     O1317   2.440       .  S
Zr1315     O1321   2.348   1_455  S
Zr1315     O1322   2.393   1_455  S
Zr1315     O1345   2.398       .  S
Zr1315     O1347   2.330       .  S
O1316      H1359   0.990       .  S
O1317      H1358   0.990       .  S
O1317      H1362   0.990       .  S
Zr1318     O1319   2.430       .  S
Zr1318     O1320   2.423       .  S
Zr1318     O1322   2.378       .  S
Zr1318     O1321   2.363       .  S
Zr1318     O1346   2.375       .  S
Zr1318     O1348   2.357       .  S
O1319      H1360   0.989       .  S
O1319      H1363   0.990       .  S
O1320      H1353   0.990       .  S
O1321     Zr1341   2.361       .  S
O1322     Zr1342   2.480   1_655  S
O1322      H1349   0.964       .  S
O1323     Zr1335   2.393       .  S
O1323      C1325   1.264       .  A
O1324     Zr1342   2.454       .  S
O1324      C1325   1.283       .  A
C1325      C1678   1.464       .  S
O1326     Zr1338   2.426       .  S
O1326      C1328   1.284       .  A
O1327     Zr1341   2.400       .  S
O1327      C1328   1.281       .  A
C1328      C1396   1.457       .  S
O1329     Zr1338   2.388       .  S
O1329      C1331   1.264       .  A
O1330     Zr1342   2.568       .  S
O1330      C1331   1.306   1_455  A
C1331      C1692   1.524       .  S
O1332     Zr1335   2.365       .  S
O1332      C1334   1.276       .  A
O1333     Zr1341   2.395   1_455  S
O1333      C1334   1.281       .  A
Zr1335     O1336   2.436       .  S
Zr1335     O1337   2.432       .  S
Zr1335     O1343   2.346       .  S
Zr1335     O1344   2.373       .  S
Zr1335     O1347   2.356       .  S
Zr1335     O1345   2.358       .  S
O1336      H1356   0.990       .  S
O1336      H1361   0.991       .  S
O1337      H1357   0.990       .  S
Zr1338     O1339   2.433   1_655  S
Zr1338     O1340   2.438       .  S
Zr1338     O1344   2.346   1_655  S
Zr1338     O1343   2.384   1_655  S
Zr1338     O1348   2.373       .  S
Zr1338     O1346   2.358       .  S
O1339      H1355   0.990       .  S
O1340      H1354   0.989       .  S
O1340      H1364   0.989       .  S
Zr1341     O1344   2.364   1_655  S
Zr1341     O1346   2.362       .  S
Zr1341     O1347   2.370   1_655  S
Zr1342     O1343   2.462       .  S
Zr1342     O1345   2.407       .  S
Zr1342     O1348   2.465   1_455  S
O1343      H1351   0.963       .  S
O1346      H1350   0.966       .  S
O1347      H1352   0.963       .  S
O1365     Zr1377   2.416       .  S
O1365      C1367   1.277       .  A
O1366     Zr1403   2.432       .  S
O1366      C1367   1.290       .  A
O1368     Zr1380   2.387       .  S
O1368      C1370   1.264       .  A
O1369     Zr1404   2.596       .  S
O1369      C1370   1.312       .  A
C1370      C1608   1.547       .  S
O1371     Zr1380   2.377       .  S
O1371      C1373   1.272       .  A
O1372     Zr1403   2.372   1_455  S
O1372      C1373   1.281       .  A
O1374     Zr1377   2.413       .  S
O1374      C1376   1.256       .  A
O1375     Zr1404   2.465   1_655  S
O1375      C1376   1.280       .  A
C1376      C1622   1.471       .  S
Zr1377     O1378   2.429       .  S
Zr1377     O1379   2.429       .  S
Zr1377     O1383   2.369       .  S
Zr1377     O1384   2.376       .  S
Zr1377     O1407   2.381       .  S
Zr1377     O1409   2.376   1_565  S
O1378      H1421   0.990       .  S
O1379      H1420   0.989   1_565  S
O1379      H1424   0.990       .  S
Zr1380     O1381   2.441   1_455  S
Zr1380     O1382   2.434       .  S
Zr1380     O1384   2.356   1_455  S
Zr1380     O1383   2.357   1_455  S
Zr1380     O1408   2.361       .  S
Zr1380     O1410   2.349       .  S
O1381      H1422   0.988       .  S
O1381      H1425   0.989       .  S
O1382      H1415   0.991       .  S
O1383     Zr1403   2.364       .  S
O1384     Zr1404   2.489   1_655  S
O1384      H1411   0.965       .  S
O1385     Zr1397   2.371       .  S
O1385      C1387   1.261       .  A
O1386     Zr1404   2.608   1_545  S
O1386      C1387   1.311   1_455  A
C1387      C1639   1.564       .  S
O1388     Zr1400   2.394       .  S
O1388      C1390   1.273       .  A
O1389     Zr1403   2.391   1_455  S
O1389      C1390   1.283   1_565  A
O1391     Zr1400   2.411   1_565  S
O1391      C1393   1.270       .  A
O1392     Zr1404   2.469       .  S
O1392      C1393   1.285       .  A
C1393      C1594   1.464       .  S
O1394     Zr1397   2.434       .  S
O1394      C1396   1.287       .  A
O1395     Zr1403   2.393   1_545  S
O1395      C1396   1.282       .  A
Zr1397     O1398   2.436   1_655  S
Zr1397     O1399   2.435       .  S
Zr1397     O1405   2.408   1_655  S
Zr1397     O1406   2.333   1_655  S
Zr1397     O1409   2.355       .  S
Zr1397     O1407   2.390   1_545  S
O1398      H1418   0.990       .  S
O1398      H1423   0.990   1_455  S
O1399      H1419   0.990       .  S
Zr1400     O1401   2.435       .  S
Zr1400     O1402   2.435   1_545  S
Zr1400     O1406   2.361       .  S
Zr1400     O1405   2.344       .  S
Zr1400     O1410   2.340   1_545  S
Zr1400     O1408   2.354   1_545  S
O1401      H1417   0.990       .  S
O1402      H1416   0.990       .  S
O1402      H1426   0.989       .  S
Zr1403     O1406   2.357   1_665  S
Zr1403     O1408   2.388   1_655  S
Zr1403     O1409   2.364   1_565  S
Zr1404     O1405   2.460   1_565  S
Zr1404     O1407   2.438   1_455  S
Zr1404     O1410   2.409       .  S
O1405      H1413   0.964       .  S
O1408      H1412   0.965       .  S
O1409      H1414   0.966       .  S
O1427     Zr1439   2.396       .  S
O1427      C1429   1.275       .  A
O1428     Zr1465   2.371       .  S
O1428      C1429   1.279       .  A
O1430     Zr1442   2.380   1_655  S
O1430      C1432   1.263   1_655  A
O1431     Zr1466   2.609       .  S
O1431      C1432   1.315       .  A
C1432      C1583   1.547       .  S
O1433     Zr1442   2.400   1_655  S
O1433      C1435   1.279       .  A
O1434     Zr1465   2.385   1_655  S
O1434      C1435   1.280       .  A
O1436     Zr1439   2.388       .  S
O1436      C1438   1.257       .  A
O1437     Zr1466   2.476   1_545  S
O1437      C1438   1.283   1_545  A
C1438      C1569   1.480       .  S
Zr1439     O1440   2.434       .  S
Zr1439     O1441   2.438   1_565  S
Zr1439     O1445   2.368       .  S
Zr1439     O1446   2.380       .  S
Zr1439     O1469   2.363   1_565  S
Zr1439     O1471   2.366   1_565  S
O1440      H1483   0.990       .  S
O1441      H1482   0.990       .  S
O1441      H1486   0.989       .  S
Zr1442     O1443   2.441       .  S
Zr1442     O1444   2.432   1_455  S
Zr1442     O1446   2.381       .  S
Zr1442     O1445   2.338       .  S
Zr1442     O1470   2.357   1_455  S
Zr1442     O1472   2.356   1_455  S
O1443      H1484   0.988       .  S
O1443      H1487   0.989       .  S
O1444      H1477   0.990       .  S
O1445     Zr1465   2.358       .  S
O1446     Zr1466   2.471       .  S
O1446      H1473   0.965       .  S
O1447     Zr1459   2.361       .  S
O1447      C1449   1.257       .  A
O1448     Zr1466   2.611   1_545  S
O1448      C1449   1.311       .  A
C1449      C1552   1.544       .  S
O1450     Zr1462   2.423       .  S
O1450      C1452   1.279       .  A
O1451     Zr1465   2.393   1_645  S
O1451      C1452   1.286       .  A
O1453     Zr1462   2.395   1_565  S
O1453      C1455   1.265       .  A
O1454     Zr1466   2.458   1_645  S
O1454      C1455   1.268   1_545  A
C1455      C1541   1.461   1_565  S
O1456     Zr1459   2.397       .  S
O1456      C1458   1.279       .  A
O1457     Zr1465   2.367   1_545  S
O1457      C1458   1.277       .  A
Zr1459     O1460   2.436   1_455  S
Zr1459     O1461   2.436       .  S
Zr1459     O1467   2.396   1_455  S
Zr1459     O1468   2.335   1_455  S
Zr1459     O1471   2.350       .  S
Zr1459     O1469   2.393       .  S
O1460      H1480   0.986       .  S
O1460      H1485   0.989       .  S
O1461      H1481   0.990       .  S
Zr1462     O1463   2.418       .  S
Zr1462     O1464   2.419   1_545  S
Zr1462     O1468   2.348       .  S
Zr1462     O1467   2.383       .  S
Zr1462     O1472   2.362   1_545  S
Zr1462     O1470   2.360   1_545  S
O1463      H1479   0.990       .  S
O1464      H1478   0.988       .  S
O1464      H1488   0.987       .  S
Zr1465     O1468   2.341   1_465  S
Zr1465     O1470   2.356   1_455  S
Zr1465     O1471   2.376   1_565  S
Zr1466     O1467   2.486   1_465  S
Zr1466     O1469   2.419   1_565  S
Zr1466     O1472   2.461   1_455  S
O1467      H1475   0.965       .  S
O1470      H1474   0.966       .  S
O1471      H1476   0.965       .  S
C1489      C1490   1.394       .  D
C1489      C2308   1.550       .  S
C1489      C2367   1.567       .  S
C1490      C1636   1.558   1_455  S
C1490      C1695   1.541   1_455  S
C1491      C1492   1.353       .  D
C1491      C1919   1.453       .  S
C1491      C2031   1.476       .  S
C1492      C1625   1.492       .  S
C1492      C1779   1.459       .  S
C1493      C1494   1.390       .  D
C1493      C2255   1.538       .  S
C1493      C2353   1.560       .  S
C1494      C1611   1.553       .  S
C1494      C1832   1.532       .  S
C1495      C1496   1.378       .  D
C1495      C1975   1.536       .  S
C1495      C2014   1.480       .  S
C1496      C1597   1.488       .  S
C1496      C1748   1.549       .  S
C1497      C1498   1.388       .  D
C1497      C2591   1.561       .  S
C1497      C2854   1.475       .  S
C1498      C1681   1.492       .  S
C1498      C1723   1.579       .  S
C1499      C1500   1.364       .  D
C1499      C1667   1.495       .  S
C1499      C1765   1.503       .  S
C1500      C2686   1.493       .  S
C1500      C2871   1.491       .  S
C1501      C1502   1.396       .  D
C1501      C2577   1.554       .  S
C1501      C2745   1.555       .  S
C1502      C1734   1.549       .  S
C1502      C1821   1.543       .  S
C1503      C1504   1.383   1_565  D
C1503      C1961   1.541       .  S
C1503      C2112   1.480       .  S
C1504      C1566   1.489   1_545  S
C1504      C1709   1.551       .  S
C1505      C1506   1.387       .  D
C1505      C2297   1.554       .  S
C1505      C2423   1.555       .  S
C1506      C1947   1.547       .  S
C1506      C2059   1.542       .  S
C1507      C1508   1.392       .  D
C1507      C2227   1.564       .  S
C1507      C2409   1.539       .  S
C1508      C1933   1.531       .  S
C1508      C2157   1.546       .  S
C1509      C1510   1.375       .  D
C1509      C2756   1.548       .  S
C1509      C2815   1.505       .  S
C1510      C2003   1.484       .  S
C1510      C2185   1.528       .  S
C1511      C1512   1.356       .  D
C1511      C2801   1.496       .  S
C1511      C2843   1.484       .  S
C1512      C1989   1.485       .  S
C1512      C2084   1.470       .  S
C1513      C1514   1.353       .  D
C1513      C2647   1.497       .  S
C1513      C2826   1.478       .  S
C1514      C2073   1.472       .  S
C1514      C2129   1.496       .  S
C1515      C1516   1.390       .  D
C1515      C1555   1.565       .  S
C1515      C1653   1.548       .  S
C1516      C2280   1.546       .  S
C1516      C2451   1.563       .  S
C1517      C1518   1.380       .  D
C1517      C2269   1.571       .  S
C1517      C2493   1.514       .  S
C1518      C1877   1.480       .  S
C1518      C2045   1.530       .  S
C1519      C1520   1.388       .  D
C1519      C2563   1.539       .  S
C1519      C2787   1.537       .  S
C1520      C2336   1.556       .  S
C1520      C2395   1.558       .  S
C1521      C1522   1.385       .  D
C1521      C2700   1.539       .  S
C1521      C2773   1.541       .  S
C1522      C2322   1.551       .  S
C1522      C2521   1.548       .  S
C1523      C1524   1.388       .  D
C1523      C2549   1.538       .  S
C1523      C2633   1.536       .  S
C1524      C2381   1.553       .  S
C1524      C2437   1.550       .  S
C1525      C1526   1.392       .  D
C1525      C2238   1.548       .  S
C1525      C2465   1.572       .  S
C1526      C1580   1.569       .  S
C1526      C1846   1.538       .  S
C1527      C1528   1.349       .  D
C1527      C1905   1.463       .  S
C1527      C2098   1.489       .  S
C1528      C1538   1.485       .  S
C1528      C1793   1.467       .  S
C1529      C1530   1.387       .  D
C1529      C2213   1.568       .  S
C1529      C2507   1.505       .  S
C1530      C1891   1.494       .  S
C1530      C2171   1.553       .  S
C1531      C1532   1.390       .  D
C1531      C2619   1.555       .  S
C1531      C2675   1.550       .  S
C1532      C2479   1.556       .  S
C1532      C2535   1.553       .  S
C1533      C1534   1.384       .  D
C1533      C2658   1.504       .  S
C1533      C2717   1.558       .  S
C1534      C1807   1.481       .  S
C1534      C1860   1.542       .  S
C1535      C1536   1.382       .  D
C1535      C2605   1.511       .  S
C1535      C2731   1.543       .  S
C1536      C2143   1.505       .  S
C1536      C2199   1.520       .  S
C1537      C1538   1.408       .  A
C1537      C1542   1.405       .  A
C1537      H1544   1.083       .  S
C1538      C1539   1.405   1_545  A
C1539      C1540   1.395       .  A
C1539      N1546   1.436       .  S
C1540      C1541   1.403   1_565  A
C1540      H1545   1.085       .  S
C1541      C1542   1.412       .  A
C1542      N1543   1.437       .  S
N1543      H1547   1.045       .  S
N1543      H1548   1.044       .  S
N1546      H1549   1.045       .  S
N1546      H1550   1.042       .  S
C1551      C1552   1.414       .  A
C1551      C1556   1.438   1_455  A
C1551      H1558   1.082   1_455  S
C1552      C1553   1.430       .  A
C1553      C1554   1.426       .  A
C1553      N1560   1.438       .  S
C1554      C1555   1.412       .  A
C1554      H1559   1.080       .  S
C1555      C1556   1.435   1_455  A
C1556      N1557   1.437       .  S
N1557      H1561   1.044       .  S
N1557      H1562   1.042       .  S
N1560      H1563   1.044       .  S
N1560      H1564   1.046       .  S
C1565      C1566   1.409   1_545  A
C1565      C1570   1.410       .  A
C1565      H1572   1.082       .  S
C1566      C1567   1.412       .  A
C1567      C1568   1.392       .  A
C1567      N1574   1.439       .  S
C1568      C1569   1.407       .  A
C1568      H1573   1.085       .  S
C1569      C1570   1.418   1_565  A
C1570      N1571   1.437       .  S
N1571      H1575   1.046       .  S
N1571      H1576   1.041       .  S
N1574      H1577   1.040       .  S
N1574      H1578   1.045       .  S
C1579      C1580   1.411   1_655  A
C1579      C1584   1.426       .  A
C1579      H1586   1.082       .  S
C1580      C1581   1.434       .  A
C1581      C1582   1.435       .  A
C1581      N1588   1.426       .  S
C1582      C1583   1.414       .  A
C1582      H1587   1.083       .  S
C1583      C1584   1.433   1_455  A
C1584      N1585   1.438       .  S
N1585      H1589   1.045       .  S
N1585      H1590   1.044       .  S
N1588      H1591   1.044       .  S
N1588      H1592   1.044       .  S
C1593      C1594   1.400   1_545  A
C1593      C1598   1.408       .  A
C1593      H1600   1.083       .  S
C1594      C1595   1.416       .  A
C1595      C1596   1.400       .  A
C1595      N1602   1.438       .  S
C1596      C1597   1.404       .  A
C1596      H1601   1.084       .  S
C1597      C1598   1.413   1_565  A
C1598      N1599   1.436       .  S
N1599      H1603   1.046       .  S
N1599      H1604   1.041       .  S
N1602      H1605   1.045       .  S
N1602      H1606   1.046       .  S
C1607      C1608   1.421       .  A
C1607      C1612   1.424       .  A
C1607      H1614   1.084       .  S
C1608      C1609   1.433   1_455  A
C1609      C1610   1.435       .  A
C1609      N1616   1.436       .  S
C1610      C1611   1.419   1_655  A
C1610      H1615   1.083       .  S
C1611      C1612   1.410       .  A
C1612      N1613   1.431       .  S
N1613      H1617   1.046       .  S
N1613      H1618   1.045       .  S
N1616      H1619   1.041       .  S
N1616      H1620   1.045       .  S
C1621      C1622   1.410       .  A
C1621      C1626   1.403       .  A
C1621      H1628   1.085       .  S
C1622      C1623   1.411       .  A
C1623      C1624   1.402       .  A
C1623      N1630   1.436   1_565  S
C1624      C1625   1.408       .  A
C1624      H1629   1.081   1_565  S
C1625      C1626   1.405       .  A
C1626      N1627   1.439       .  S
N1627      H1631   1.046       .  S
N1627      H1632   1.040       .  S
N1630      H1633   1.043       .  S
N1630      H1634   1.044       .  S
C1635      C1636   1.421   1_455  A
C1635      C1640   1.443       .  A
C1635      H1642   1.083       .  S
C1636      C1637   1.410       .  A
C1637      C1638   1.424       .  A
C1637      N1644   1.431       .  S
C1638      C1639   1.425       .  A
C1638      H1643   1.083       .  S
C1639      C1640   1.437   1_655  A
C1640      N1641   1.436       .  S
N1641      H1645   1.046       .  S
N1641      H1646   1.039       .  S
N1644      H1647   1.045       .  S
N1644      H1648   1.046       .  S
C1649      C1650   1.417       .  A
C1649      C1654   1.423       .  A
C1649      H1656   1.084       .  S
C1650      C1651   1.424   1_455  A
C1651      C1652   1.429       .  A
C1651      N1658   1.436       .  S
C1652      C1653   1.416   1_655  A
C1652      H1657   1.081       .  S
C1653      C1654   1.425       .  A
C1654      N1655   1.435       .  S
N1655      H1659   1.045       .  S
N1655      H1660   1.041       .  S
N1658      H1661   1.042       .  S
N1658      H1662   1.045       .  S
C1663      C1664   1.398       .  A
C1663      C1668   1.399       .  A
C1663      H1670   1.085       .  S
C1664      C1665   1.401       .  A
C1665      C1666   1.405       .  A
C1665      N1672   1.436       .  S
C1666      C1667   1.405       .  A
C1666      H1671   1.083       .  S
C1667      C1668   1.414       .  A
C1668      N1669   1.429       .  S
N1669      H1673   1.046       .  S
N1669      H1674   1.046       .  S
N1672      H1675   1.045       .  S
N1672      H1676   1.046       .  S
C1677      C1678   1.397       .  A
C1677      C1682   1.392       .  A
C1677      H1684   1.086       .  S
C1678      C1679   1.414       .  A
C1679      C1680   1.406       .  A
C1679      N1686   1.437       .  S
C1680      C1681   1.406       .  A
C1680      H1685   1.084       .  S
C1681      C1682   1.425       .  A
C1682      N1683   1.434       .  S
N1683      H1687   1.046       .  S
N1683      H1688   1.035       .  S
N1686      H1689   1.043       .  S
N1686      H1690   1.046       .  S
C1691      C1692   1.415   1_455  A
C1691      C1696   1.434       .  A
C1691      H1698   1.082       .  S
C1692      C1693   1.424       .  A
C1693      C1694   1.416       .  A
C1693      N1700   1.438       .  S
C1694      C1695   1.410       .  A
C1694      H1699   1.080       .  S
C1695      C1696   1.419   1_655  A
C1696      N1697   1.437       .  S
N1697      H1701   1.045       .  S
N1697      H1702   1.045       .  S
N1700      H1703   1.044       .  S
N1700      H1704   1.045       .  S
C1705      C1706   1.412   1_545  A
C1705      C1710   1.433       .  A
C1705      H1712   1.082       .  S
C1706      C1707   1.427       .  A
C1707      C1708   1.425       .  A
C1707      N1714   1.437       .  S
C1708      C1709   1.413   1_565  A
C1708      H1713   1.083       .  S
C1709      C1710   1.423       .  A
C1710      N1711   1.436       .  S
N1711      H1715   1.045       .  S
N1711      H1716   1.044       .  S
N1714      H1717   1.044       .  S
N1714      H1718   1.046       .  S
C1719      C1720   1.414       .  A
C1719      C1724   1.419       .  A
C1719      H1726   1.085       .  S
C1720      C1721   1.430       .  A
C1721      C1722   1.445       .  A
C1721      N1728   1.436       .  S
C1722      C1723   1.429       .  A
C1722      H1727   1.080       .  S
C1723      C1724   1.421       .  A
C1724      N1725   1.424       .  S
N1725      H1729   1.046       .  S
N1725      H1730   1.046       .  S
N1728      H1731   1.043       .  S
N1728      H1732   1.044       .  S
C1733      C1734   1.408       .  A
C1733      C1738   1.422       .  A
C1733      H1740   1.082       .  S
C1734      C1735   1.425       .  A
C1735      C1736   1.430       .  A
C1735      N1742   1.430       .  S
C1736      C1737   1.415       .  A
C1736      H1741   1.083       .  S
C1737      C1738   1.430       .  A
C1738      N1739   1.439       .  S
N1739      H1743   1.046       .  S
N1739      H1744   1.044       .  S
N1742      H1745   1.045       .  S
N1742      H1746   1.045       .  S
C1747      C1748   1.417       .  A
C1747      C1752   1.430       .  A
C1747      H1754   1.083       .  S
C1748      C1749   1.425   1_565  A
C1749      C1750   1.421       .  A
C1749      N1756   1.437       .  S
C1750      C1751   1.414       .  A
C1750      H1755   1.084       .  S
C1751      C1752   1.427   1_545  A
C1752      N1753   1.436       .  S
N1753      H1757   1.044       .  S
N1753      H1758   1.042       .  S
N1756      H1759   1.040       .  S
N1756      H1760   1.046       .  S
C1761      C1762   1.405       .  A
C1761      C1766   1.407       .  A
C1761      H1768   1.084       .  S
C1762      C1763   1.422       .  A
C1763      C1764   1.406       .  A
C1763      N1770   1.439       .  S
C1764      C1765   1.405       .  A
C1764      H1769   1.084       .  S
C1765      C1766   1.410       .  A
C1766      N1767   1.428       .  S
N1767      H1771   1.046       .  S
N1767      H1772   1.046       .  S
N1770      H1773   1.043       .  S
N1770      H1774   1.046       .  S
C1775      C1776   1.405       .  A
C1775      C1780   1.394       .  A
C1775      H1782   1.084   1_565  S
C1776      C1777   1.415       .  A
C1777      C1778   1.388       .  A
C1777      N1784   1.435       .  S
C1778      C1779   1.397       .  A
C1778      H1783   1.083       .  S
C1779      C1780   1.405       .  A
C1780      N1781   1.438   1_565  S
N1781      H1785   1.046       .  S
N1781      H1786   1.042       .  S
N1784      H1787   1.046       .  S
N1784      H1788   1.042       .  S
C1789      C1790   1.406       .  A
C1789      C1794   1.392       .  A
C1789      H1796   1.083       .  S
C1790      C1791   1.413   1_545  A
C1791      C1792   1.399       .  A
C1791      N1798   1.437       .  S
C1792      C1793   1.399   1_565  A
C1792      H1797   1.083       .  S
C1793      C1794   1.404       .  A
C1794      N1795   1.438       .  S
N1795      H1799   1.046       .  S
N1795      H1800   1.040       .  S
N1798      H1801   1.046       .  S
N1798      H1802   1.046       .  S
C1803      C1804   1.407       .  A
C1803      C1808   1.388       .  A
C1803      H1810   1.084       .  S
C1804      C1805   1.417       .  A
C1805      C1806   1.402       .  A
C1805      N1812   1.431       .  S
C1806      C1807   1.406       .  A
C1806      H1811   1.083       .  S
C1807      C1808   1.401       .  A
C1808      N1809   1.429       .  S
N1809      H1813   1.044       .  S
N1809      H1814   1.046       .  S
N1812      H1815   1.046       .  S
N1812      H1816   1.044       .  S
C1817      C1818   1.415       .  A
C1817      C1822   1.432       .  A
C1817      H1824   1.083       .  S
C1818      C1819   1.420       .  A
C1819      C1820   1.424       .  A
C1819      N1826   1.438       .  S
C1820      C1821   1.411       .  A
C1820      H1825   1.083       .  S
C1821      C1822   1.419       .  A
C1822      N1823   1.437       .  S
N1823      H1827   1.045       .  S
N1823      H1828   1.044       .  S
N1826      H1829   1.045       .  S
N1826      H1830   1.046       .  S
C1831      C1832   1.408       .  A
C1831      C1836   1.416       .  A
C1831      H1838   1.084       .  S
C1832      C1833   1.415   1_455  A
C1833      C1834   1.427       .  A
C1833      N1840   1.431       .  S
C1834      C1835   1.413   1_655  A
C1834      H1839   1.083       .  S
C1835      C1836   1.425       .  A
C1836      N1837   1.437       .  S
N1837      H1841   1.046       .  S
N1837      H1842   1.045       .  S
N1840      H1843   1.045       .  S
N1840      H1844   1.045       .  S
C1845      C1846   1.412       .  A
C1845      C1850   1.422       .  A
C1845      H1852   1.081   1_455  S
C1846      C1847   1.429       .  A
C1847      C1848   1.419       .  A
C1847      N1854   1.436       .  S
C1848      C1849   1.410       .  A
C1848      H1853   1.084       .  S
C1849      C1850   1.412       .  A
C1850      N1851   1.430   1_455  S
N1851      H1855   1.042       .  S
N1851      H1856   1.046       .  S
N1854      H1857   1.040       .  S
N1854      H1858   1.046       .  S
C1859      C1860   1.413       .  A
C1859      C1864   1.426       .  A
C1859      H1866   1.083       .  S
C1860      C1861   1.416       .  A
C1861      C1862   1.416       .  A
C1861      N1868   1.430       .  S
C1862      C1863   1.411       .  A
C1862      H1867   1.084       .  S
C1863      C1864   1.426       .  A
C1864      N1865   1.435       .  S
N1865      H1869   1.044       .  S
N1865      H1870   1.042       .  S
N1868      H1871   1.045       .  S
N1868      H1872   1.045       .  S
C1873      C1874   1.399   1_554  A
C1873      C1878   1.398       .  A
C1873      H1880   1.084       .  S
C1874      C1875   1.409       .  A
C1875      C1876   1.386       .  A
C1875      N1882   1.435       .  S
C1876      C1877   1.396       .  A
C1876      H1881   1.075       .  S
C1877      C1878   1.417   1_556  A
C1878      N1879   1.429       .  S
N1879      H1883   1.043       .  S
N1879      H1884   1.045       .  S
N1882      H1885   1.044       .  S
N1882      H1886   1.046       .  S
C1887      C1888   1.400   1_556  A
C1887      C1892   1.396       .  A
C1887      H1894   1.085       .  S
C1888      C1889   1.414       .  A
C1889      C1890   1.405       .  A
C1889      N1896   1.438       .  S
C1890      C1891   1.409   1_554  A
C1890      H1895   1.083       .  S
C1891      C1892   1.408       .  A
C1892      N1893   1.427       .  S
N1893      H1897   1.046       .  S
N1893      H1898   1.045       .  S
N1896      H1899   1.044       .  S
N1896      H1900   1.046       .  S
C1901      C1902   1.397       .  A
C1901      C1906   1.385       .  A
C1901      H1908   1.085       .  S
C1902      C1903   1.409       .  A
C1903      C1904   1.390       .  A
C1903      N1910   1.429       .  S
C1904      C1905   1.398       .  A
C1904      H1909   1.084       .  S
C1905      C1906   1.412       .  A
C1906      N1907   1.430   1_545  S
N1907      H1911   1.044       .  S
N1907      H1912   1.046       .  S
N1910      H1913   1.040       .  S
N1910      H1914   1.046       .  S
C1915      C1916   1.401       .  A
C1915      C1920   1.392       .  A
C1915      H1922   1.085       .  S
C1916      C1917   1.402       .  A
C1917      C1918   1.386       .  A
C1917      N1924   1.438   1_565  S
C1918      C1919   1.399       .  A
C1918      H1923   1.083   1_565  S
C1919      C1920   1.403       .  A
C1920      N1921   1.435       .  S
N1921      H1925   1.046       .  S
N1921      H1926   1.045       .  S
N1924      H1927   1.045       .  S
N1924      H1928   1.046       .  S
C1929      C1930   1.410       .  A
C1929      C1934   1.428       .  A
C1929      H1936   1.084       .  S
C1930      C1931   1.423   1_556  A
C1931      C1932   1.409       .  A
C1931      N1938   1.438       .  S
C1932      C1933   1.407   1_554  A
C1932      H1937   1.083       .  S
C1933      C1934   1.420       .  A
C1934      N1935   1.435       .  S
N1935      H1939   1.046       .  S
N1935      H1940   1.043       .  S
N1938      H1941   1.045       .  S
N1938      H1942   1.046       .  S
C1943      C1944   1.415   1_554  A
C1943      C1948   1.414       .  A
C1943      H1950   1.085       .  S
C1944      C1945   1.425       .  A
C1945      C1946   1.433       .  A
C1945      N1952   1.436       .  S
C1946      C1947   1.421       .  A
C1946      H1951   1.083       .  S
C1947      C1948   1.412   1_556  A
C1948      N1949   1.427       .  S
N1949      H1953   1.046       .  S
N1949      H1954   1.046       .  S
N1952      H1955   1.044       .  S
N1952      H1956   1.044       .  S
C1957      C1958   1.413   1_545  A
C1957      C1962   1.430       .  A
C1957      H1964   1.083       .  S
C1958      C1959   1.423       .  A
C1959      C1960   1.413       .  A
C1959      N1966   1.438       .  S
C1960      C1961   1.407       .  A
C1960      H1965   1.082       .  S
C1961      C1962   1.419   1_565  A
C1962      N1963   1.436       .  S
N1963      H1967   1.045       .  S
N1963      H1968   1.043       .  S
N1966      H1969   1.044       .  S
N1966      H1970   1.046       .  S
C1971      C1972   1.412       .  A
C1971      C1976   1.417       .  A
C1971      H1978   1.084       .  S
C1972      C1973   1.419   1_565  A
C1973      C1974   1.414       .  A
C1973      N1980   1.437       .  S
C1974      C1975   1.410   1_545  A
C1974      H1979   1.079       .  S
C1975      C1976   1.422       .  A
C1976      N1977   1.437       .  S
N1977      H1981   1.046       .  S
N1977      H1982   1.043       .  S
N1980      H1983   1.045       .  S
N1980      H1984   1.046       .  S
C1985      C1986   1.401       .  A
C1985      C1990   1.398       .  A
C1985      H1992   1.084       .  S
C1986      C1987   1.416       .  A
C1987      C1988   1.404       .  A
C1987      N1994   1.437       .  S
C1988      C1989   1.405       .  A
C1988      H1993   1.084       .  S
C1989      C1990   1.408       .  A
C1990      N1991   1.436       .  S
N1991      H1995   1.046       .  S
N1991      H1996   1.044       .  S
N1994      H1997   1.043       .  S
N1994      H1998   1.046       .  S
C1999      C2000   1.406       .  A
C1999      C2004   1.406       .  A
C1999      H2006   1.084       .  S
C2000      C2001   1.416       .  A
C2001      C2002   1.397       .  A
C2001      N2008   1.438       .  S
C2002      C2003   1.400       .  A
C2002      H2007   1.081       .  S
C2003      C2004   1.408       .  A
C2004      N2005   1.437       .  S
N2005      H2009   1.046       .  S
N2005      H2010   1.045       .  S
N2008      H2011   1.044       .  S
N2008      H2012   1.046       .  S
C2013      C2014   1.401       .  A
C2013      C2018   1.402       .  A
C2013      H2020   1.082       .  S
C2014      C2015   1.403   1_565  A
C2015      C2016   1.395       .  A
C2015      N2022   1.431       .  S
C2016      C2017   1.407   1_545  A
C2016      H2021   1.083       .  S
C2017      C2018   1.417       .  A
C2018      N2019   1.438       .  S
N2019      H2023   1.046       .  S
N2019      H2024   1.046       .  S
N2022      H2025   1.046       .  S
N2022      H2026   1.045       .  S
C2027      C2028   1.404       .  A
C2027      C2032   1.397       .  A
C2027      H2034   1.084       .  S
C2028      C2029   1.416       .  A
C2029      C2030   1.388       .  A
C2029      N2036   1.432   1_565  S
C2030      C2031   1.398       .  A
C2030      H2035   1.081   1_565  S
C2031      C2032   1.406       .  A
C2032      N2033   1.431       .  S
N2033      H2037   1.045       .  S
N2033      H2038   1.045       .  S
N2036      H2039   1.045       .  S
N2036      H2040   1.045       .  S
C2041      C2042   1.407       .  A
C2041      C2046   1.419       .  A
C2041      H2048   1.084       .  S
C2042      C2043   1.417   1_556  A
C2043      C2044   1.407       .  A
C2043      N2050   1.437       .  S
C2044      C2045   1.407   1_554  A
C2044      H2049   1.081       .  S
C2045      C2046   1.425       .  A
C2046      N2047   1.437       .  S
N2047      H2051   1.044       .  S
N2047      H2052   1.041       .  S
N2050      H2053   1.045       .  S
N2050      H2054   1.046       .  S
C2055      C2056   1.411   1_554  A
C2055      C2060   1.419       .  A
C2055      H2062   1.084       .  S
C2056      C2057   1.421       .  A
C2057      C2058   1.423       .  A
C2057      N2064   1.434       .  S
C2058      C2059   1.411       .  A
C2058      H2063   1.083       .  S
C2059      C2060   1.429   1_556  A
C2060      N2061   1.436       .  S
N2061      H2065   1.045       .  S
N2061      H2066   1.042       .  S
N2064      H2067   1.043       .  S
N2064      H2068   1.046       .  S
C2069      C2070   1.393       .  A
C2069      C2074   1.386       .  A
C2069      H2076   1.085       .  S
C2070      C2071   1.405       .  A
C2071      C2072   1.402       .  A
C2071      N2078   1.436       .  S
C2072      C2073   1.402       .  A
C2072      H2077   1.083       .  S
C2073      C2074   1.409       .  A
C2074      N2075   1.431       .  S
N2075      H2079   1.045       .  S
N2075      H2080   1.045       .  S
N2078      H2081   1.045       .  S
N2078      H2082   1.046       .  S
C2083      C2084   1.399       .  A
C2083      C2088   1.389       .  A
C2083      H2090   1.084       .  S
C2084      C2085   1.408       .  A
C2085      C2086   1.394       .  A
C2085      N2092   1.431       .  S
C2086      C2087   1.398       .  A
C2086      H2091   1.084       .  S
C2087      C2088   1.409       .  A
C2088      N2089   1.438       .  S
N2089      H2093   1.045       .  S
N2089      H2094   1.045       .  S
N2092      H2095   1.045       .  S
N2092      H2096   1.046       .  S
C2097      C2098   1.408       .  A
C2097      C2102   1.404       .  A
C2097      H2104   1.082       .  S
C2098      C2099   1.403   1_545  A
C2099      C2100   1.388       .  A
C2099      N2106   1.431       .  S
C2100      C2101   1.405   1_565  A
C2100      H2105   1.083       .  S
C2101      C2102   1.416       .  A
C2102      N2103   1.432       .  S
N2103      H2107   1.043       .  S
N2103      H2108   1.045       .  S
N2106      H2109   1.045       .  S
N2106      H2110   1.046       .  S
C2111      C2112   1.400       .  A
C2111      C2116   1.398       .  A
C2111      H2118   1.082       .  S
C2112      C2113   1.405   1_565  A
C2113      C2114   1.401       .  A
C2113      N2120   1.431       .  S
C2114      C2115   1.405   1_545  A
C2114      H2119   1.084       .  S
C2115      C2116   1.421       .  A
C2116      N2117   1.441       .  S
N2117      H2121   1.046       .  S
N2117      H2122   1.040       .  S
N2120      H2123   1.046       .  S
N2120      H2124   1.046       .  S
C2125      C2126   1.409       .  A
C2125      C2130   1.410       .  A
C2125      H2132   1.084       .  S
C2126      C2127   1.417       .  A
C2127      C2128   1.391       .  A
C2127      N2134   1.433       .  S
C2128      C2129   1.399       .  A
C2128      H2133   1.077       .  S
C2129      C2130   1.418       .  A
C2130      N2131   1.437       .  S
N2131      H2135   1.045       .  S
N2131      H2136   1.043       .  S
N2134      H2137   1.044       .  S
N2134      H2138   1.044       .  S
C2139      C2140   1.411       .  A
C2139      C2144   1.398       .  A
C2139      H2146   1.083       .  S
C2140      C2141   1.410       .  A
C2141      C2142   1.409       .  A
C2141      N2148   1.437       .  S
C2142      C2143   1.411       .  A
C2142      H2147   1.074       .  S
C2143      C2144   1.417       .  A
C2144      N2145   1.438       .  S
N2145      H2149   1.046       .  S
N2145      H2150   1.037       .  S
N2148      H2151   1.046       .  S
N2148      H2152   1.046       .  S
C2153      C2154   1.413       .  A
C2153      C2158   1.424       .  A
C2153      H2160   1.084       .  S
C2154      C2155   1.425   1_556  A
C2155      C2156   1.426       .  A
C2155      N2162   1.436       .  S
C2156      C2157   1.412   1_554  A
C2156      H2161   1.084       .  S
C2157      C2158   1.428       .  A
C2158      N2159   1.435       .  S
N2159      H2163   1.045       .  S
N2159      H2164   1.040       .  S
N2162      H2165   1.043       .  S
N2162      H2166   1.046       .  S
C2167      C2168   1.406       .  A
C2167      C2172   1.426       .  A
C2167      H2174   1.083       .  S
C2168      C2169   1.422   1_556  A
C2169      C2170   1.424       .  A
C2169      N2176   1.437       .  S
C2170      C2171   1.408   1_554  A
C2170      H2175   1.083       .  S
C2171      C2172   1.435       .  A
C2172      N2173   1.435       .  S
N2173      H2177   1.045       .  S
N2173      H2178   1.040       .  S
N2176      H2179   1.045       .  S
N2176      H2180   1.046       .  S
C2181      C2182   1.409       .  A
C2181      C2186   1.424       .  A
C2181      H2188   1.084       .  S
C2182      C2183   1.422       .  A
C2183      C2184   1.414       .  A
C2183      N2190   1.437       .  S
C2184      C2185   1.407       .  A
C2184      H2189   1.082       .  S
C2185      C2186   1.417       .  A
C2186      N2187   1.438       .  S
N2187      H2191   1.046       .  S
N2187      H2192   1.042       .  S
N2190      H2193   1.045       .  S
N2190      H2194   1.046       .  S
C2195      C2196   1.408       .  A
C2195      C2200   1.414       .  A
C2195      H2202   1.084       .  S
C2196      C2197   1.409       .  A
C2197      C2198   1.414       .  A
C2197      N2204   1.432       .  S
C2198      C2199   1.408       .  A
C2198      H2203   1.083       .  S
C2199      C2200   1.419       .  A
C2200      N2201   1.439       .  S
N2201      H2205   1.046       .  S
N2201      H2206   1.040       .  S
N2204      H2207   1.045       .  S
N2204      H2208   1.044       .  S
C2209      C2210   1.417       .  A
C2209      C2214   1.428       .  A
C2209      H2216   1.084       .  S
C2210      C2211   1.431   1_556  A
C2211      C2212   1.441       .  A
C2211      N2218   1.436       .  S
C2212      C2213   1.422   1_554  A
C2212      H2217   1.083       .  S
C2213      C2214   1.422       .  A
C2214      N2215   1.435       .  S
N2215      H2219   1.045       .  S
N2215      H2220   1.042       .  S
N2218      H2221   1.043       .  S
N2218      H2222   1.043       .  S
C2223      C2224   1.413   1_556  A
C2223      C2228   1.435       .  A
C2223      H2230   1.083       .  S
C2224      C2225   1.434       .  A
C2225      C2226   1.425       .  A
C2225      N2232   1.439       .  S
C2226      C2227   1.408   1_554  A
C2226      H2231   1.084       .  S
C2227      C2228   1.435       .  A
C2228      N2229   1.435       .  S
N2229      H2233   1.046       .  S
N2229      H2234   1.040       .  S
N2232      H2235   1.044       .  S
N2232      H2236   1.046       .  S
C2237      C2238   1.411   1_655  A
C2237      C2242   1.417       .  A
C2237      H2244   1.076       .  S
C2238      C2239   1.431       .  A
C2239      C2240   1.431       .  A
C2239      N2246   1.437       .  S
C2240      C2241   1.412       .  A
C2240      H2245   1.083       .  S
C2241      C2242   1.424   1_455  A
C2242      N2243   1.439       .  S
N2243      H2247   1.046       .  S
N2243      H2248   1.045       .  S
N2246      H2249   1.042       .  S
N2246      H2250   1.046       .  S
C2251      C2252   1.412       .  A
C2251      C2256   1.430       .  A
C2251      H2258   1.084       .  S
C2252      C2253   1.427   1_455  A
C2253      C2254   1.412       .  A
C2253      N2260   1.439       .  S
C2254      C2255   1.405   1_655  A
C2254      H2259   1.082       .  S
C2255      C2256   1.430       .  A
C2256      N2257   1.435       .  S
N2257      H2261   1.045       .  S
N2257      H2262   1.042       .  S
N2260      H2263   1.044       .  S
N2260      H2264   1.046       .  S
C2265      C2266   1.420       .  A
C2265      C2270   1.424       .  A
C2265      H2272   1.085       .  S
C2266      C2267   1.431   1_556  A
C2267      C2268   1.440       .  A
C2267      N2274   1.435       .  S
C2268      C2269   1.419   1_554  A
C2268      H2273   1.083       .  S
C2269      C2270   1.429       .  A
C2270      N2271   1.429       .  S
N2271      H2275   1.043       .  S
N2271      H2276   1.040       .  S
N2274      H2277   1.045       .  S
N2274      H2278   1.045       .  S
C2279      C2280   1.417       .  A
C2279      C2284   1.437       .  A
C2279      H2286   1.083       .  S
C2280      C2281   1.417   1_455  A
C2281      C2282   1.420       .  A
C2281      N2288   1.433       .  S
C2282      C2283   1.415   1_655  A
C2282      H2287   1.084       .  S
C2283      C2284   1.420       .  A
C2284      N2285   1.435       .  S
N2285      H2289   1.046       .  S
N2285      H2290   1.045       .  S
N2288      H2291   1.044       .  S
N2288      H2292   1.046       .  S
C2293      C2294   1.417       .  A
C2293      C2298   1.433       .  A
C2293      H2300   1.081       .  S
C2294      C2295   1.430   1_556  A
C2295      C2296   1.426       .  A
C2295      N2302   1.436       .  S
C2296      C2297   1.413   1_554  A
C2296      H2301   1.083       .  S
C2297      C2298   1.419       .  A
C2298      N2299   1.429       .  S
N2299      H2303   1.045       .  S
N2299      H2304   1.045       .  S
N2302      H2305   1.045       .  S
N2302      H2306   1.046       .  S
C2307      C2308   1.411   1_655  A
C2307      C2312   1.424       .  A
C2307      H2314   1.082       .  S
C2308      C2309   1.418       .  A
C2309      C2310   1.435       .  A
C2309      N2316   1.430       .  S
C2310      C2311   1.416   1_455  A
C2310      H2315   1.082       .  S
C2311      C2312   1.429       .  A
C2312      N2313   1.438       .  S
N2313      H2317   1.046       .  S
N2313      H2318   1.044       .  S
N2316      H2319   1.045       .  S
N2316      H2320   1.045       .  S
C2321      C2322   1.425       .  A
C2321      C2326   1.442       .  A
C2321      H2328   1.082       .  S
C2322      C2323   1.412       .  A
C2323      C2324   1.421       .  A
C2323      N2330   1.438       .  S
C2324      C2325   1.421       .  A
C2324      H2329   1.084       .  S
C2325      C2326   1.420       .  A
C2326      N2327   1.435       .  S
N2327      H2331   1.045       .  S
N2327      H2332   1.044       .  S
N2330      H2333   1.044       .  S
N2330      H2334   1.045       .  S
C2335      C2336   1.419       .  A
C2335      C2340   1.434       .  A
C2335      H2342   1.083       .  S
C2336      C2337   1.429       .  A
C2337      C2338   1.416       .  A
C2337      N2344   1.433       .  S
C2338      C2339   1.414       .  A
C2338      H2343   1.085       .  S
C2339      C2340   1.425       .  A
C2340      N2341   1.435       .  S
N2341      H2345   1.045       .  S
N2341      H2346   1.044       .  S
N2344      H2347   1.035       .  S
N2344      H2348   1.045       .  S
C2349      C2350   1.419   1_655  A
C2349      C2354   1.428       .  A
C2349      H2356   1.084       .  S
C2350      C2351   1.421       .  A
C2351      C2352   1.441       .  A
C2351      N2358   1.435       .  S
C2352      C2353   1.421       .  A
C2352      H2357   1.080       .  S
C2353      C2354   1.419   1_455  A
C2354      N2355   1.436       .  S
N2355      H2359   1.045       .  S
N2355      H2360   1.045       .  S
N2358      H2361   1.045       .  S
N2358      H2362   1.045       .  S
C2363      C2364   1.425       .  A
C2363      C2368   1.427       .  A
C2363      H2370   1.083       .  S
C2364      C2365   1.430   1_655  A
C2365      C2366   1.443       .  A
C2365      N2372   1.436       .  S
C2366      C2367   1.428       .  A
C2366      H2371   1.081       .  S
C2367      C2368   1.414   1_455  A
C2368      N2369   1.437       .  S
N2369      H2373   1.045       .  S
N2369      H2374   1.043       .  S
N2372      H2375   1.042       .  S
N2372      H2376   1.045       .  S
C2377      C2378   1.410       .  A
C2377      C2382   1.431       .  A
C2377      H2384   1.083       .  S
C2378      C2379   1.417       .  A
C2379      C2380   1.421       .  A
C2379      N2386   1.432       .  S
C2380      C2381   1.413       .  A
C2380      H2385   1.081       .  S
C2381      C2382   1.434       .  A
C2382      N2383   1.437       .  S
N2383      H2387   1.045       .  S
N2383      H2388   1.039       .  S
N2386      H2389   1.046       .  S
N2386      H2390   1.046       .  S
C2391      C2392   1.408       .  A
C2391      C2396   1.419       .  A
C2391      H2398   1.084       .  S
C2392      C2393   1.425       .  A
C2393      C2394   1.441       .  A
C2393      N2400   1.435       .  S
C2394      C2395   1.419       .  A
C2394      H2399   1.083       .  S
C2395      C2396   1.423       .  A
C2396      N2397   1.426       .  S
N2397      H2401   1.046       .  S
N2397      H2402   1.046       .  S
N2400      H2403   1.045       .  S
N2400      H2404   1.045       .  S
C2405      C2406   1.417   1_554  A
C2405      C2410   1.440       .  A
C2405      H2412   1.083       .  S
C2406      C2407   1.448       .  A
C2407      C2408   1.404       .  A
C2407      N2414   1.424       .  S
C2408      C2409   1.382       .  A
C2408      H2413   1.084       .  S
C2409      C2410   1.431   1_556  A
C2410      N2411   1.433       .  S
N2411      H2415   1.045       .  S
N2411      H2416   1.046       .  S
N2414      H2417   1.045       .  S
N2414      H2418   1.048       .  S
C2419      C2420   1.420       .  A
C2419      C2424   1.422       .  A
C2419      H2426   1.084       .  S
C2420      C2421   1.429   1_556  A
C2421      C2422   1.437       .  A
C2421      N2428   1.435       .  S
C2422      C2423   1.420   1_554  A
C2422      H2427   1.082       .  S
C2423      C2424   1.415       .  A
C2424      N2425   1.431       .  S
N2425      H2429   1.045       .  S
N2425      H2430   1.046       .  S
N2428      H2431   1.042       .  S
N2428      H2432   1.046       .  S
C2433      C2434   1.417       .  A
C2433      C2438   1.418       .  A
C2433      H2440   1.085       .  S
C2434      C2435   1.419       .  A
C2435      C2436   1.427       .  A
C2435      N2442   1.436       .  S
C2436      C2437   1.421       .  A
C2436      H2441   1.076       .  S
C2437      C2438   1.426       .  A
C2438      N2439   1.438       .  S
N2439      H2443   1.045       .  S
N2439      H2444   1.040       .  S
N2442      H2445   1.044       .  S
N2442      H2446   1.043       .  S
C2447      C2448   1.419   1_655  A
C2447      C2452   1.426       .  A
C2447      H2454   1.084       .  S
C2448      C2449   1.430       .  A
C2449      C2450   1.439       .  A
C2449      N2456   1.435       .  S
C2450      C2451   1.420       .  A
C2450      H2455   1.083       .  S
C2451      C2452   1.420   1_455  A
C2452      N2453   1.430       .  S
N2453      H2457   1.045       .  S
N2453      H2458   1.046       .  S
N2456      H2459   1.043       .  S
N2456      H2460   1.044       .  S
C2461      C2462   1.418   1_655  A
C2461      C2466   1.423       .  A
C2461      H2468   1.084       .  S
C2462      C2463   1.423       .  A
C2463      C2464   1.447       .  A
C2463      N2470   1.437       .  S
C2464      C2465   1.427       .  A
C2464      H2469   1.081       .  S
C2465      C2466   1.428   1_455  A
C2466      N2467   1.437       .  S
N2467      H2471   1.046       .  S
N2467      H2472   1.039       .  S
N2470      H2473   1.042       .  S
N2470      H2474   1.045       .  S
C2475      C2476   1.415       .  A
C2475      C2480   1.428       .  A
C2475      H2482   1.084       .  S
C2476      C2477   1.417       .  A
C2477      C2478   1.437       .  A
C2477      N2484   1.436       .  S
C2478      C2479   1.419       .  A
C2478      H2483   1.081       .  S
C2479      C2480   1.421       .  A
C2480      N2481   1.434       .  S
N2481      H2485   1.046       .  S
N2481      H2486   1.043       .  S
N2484      H2487   1.046       .  S
N2484      H2488   1.046       .  S
C2489      C2490   1.407       .  A
C2489      C2494   1.407       .  A
C2489      H2496   1.085       .  S
C2490      C2491   1.413   1_556  A
C2491      C2492   1.418       .  A
C2491      N2498   1.437       .  S
C2492      C2493   1.415   1_554  A
C2492      H2497   1.083       .  S
C2493      C2494   1.415       .  A
C2494      N2495   1.428       .  S
N2495      H2499   1.046       .  S
N2495      H2500   1.045       .  S
N2498      H2501   1.044       .  S
N2498      H2502   1.041       .  S
C2503      C2504   1.410       .  A
C2503      C2508   1.402       .  A
C2503      H2510   1.085       .  S
C2504      C2505   1.422   1_556  A
C2505      C2506   1.422       .  A
C2505      N2512   1.436       .  S
C2506      C2507   1.415   1_554  A
C2506      H2511   1.083       .  S
C2507      C2508   1.405       .  A
C2508      N2509   1.436       .  S
N2509      H2513   1.046       .  S
N2509      H2514   1.044       .  S
N2512      H2515   1.042       .  S
N2512      H2516   1.046       .  S
C2517      C2518   1.418       .  A
C2517      C2522   1.419       .  A
C2517      H2524   1.084       .  S
C2518      C2519   1.429       .  A
C2519      C2520   1.433       .  A
C2519      N2526   1.436       .  S
C2520      C2521   1.420       .  A
C2520      H2525   1.081       .  S
C2521      C2522   1.421       .  A
C2522      N2523   1.438       .  S
N2523      H2527   1.046       .  S
N2523      H2528   1.042       .  S
N2526      H2529   1.041       .  S
N2526      H2530   1.044       .  S
C2531      C2532   1.414       .  A
C2531      C2536   1.440       .  A
C2531      H2538   1.083       .  S
C2532      C2533   1.426       .  A
C2533      C2534   1.424       .  A
C2533      N2540   1.439       .  S
C2534      C2535   1.408       .  A
C2534      H2539   1.079       .  S
C2535      C2536   1.427       .  A
C2536      N2537   1.434       .  S
N2537      H2541   1.045       .  S
N2537      H2542   1.043       .  S
N2540      H2543   1.044       .  S
N2540      H2544   1.046       .  S
C2545      C2546   1.417       .  A
C2545      C2550   1.413       .  A
C2545      H2552   1.084       .  S
C2546      C2547   1.419       .  A
C2547      C2548   1.437       .  A
C2547      N2554   1.436       .  S
C2548      C2549   1.419       .  A
C2548      H2553   1.082       .  S
C2549      C2550   1.412       .  A
C2550      N2551   1.437       .  S
N2551      H2555   1.045       .  S
N2551      H2556   1.040       .  S
N2554      H2557   1.045       .  S
N2554      H2558   1.045       .  S
C2559      C2560   1.414       .  A
C2559      C2564   1.434       .  A
C2559      H2566   1.082       .  S
C2560      C2561   1.422       .  A
C2561      C2562   1.417       .  A
C2561      N2568   1.438       .  S
C2562      C2563   1.405       .  A
C2562      H2567   1.078       .  S
C2563      C2564   1.420       .  A
C2564      N2565   1.436       .  S
N2565      H2569   1.045       .  S
N2565      H2570   1.045       .  S
N2568      H2571   1.044       .  S
N2568      H2572   1.046       .  S
C2573      C2574   1.416       .  A
C2573      C2578   1.436       .  A
C2573      H2580   1.083       .  S
C2574      C2575   1.423       .  A
C2575      C2576   1.425       .  A
C2575      N2582   1.432       .  S
C2576      C2577   1.411       .  A
C2576      H2581   1.081       .  S
C2577      C2578   1.424       .  A
C2578      N2579   1.435       .  S
N2579      H2583   1.045       .  S
N2579      H2584   1.044       .  S
N2582      H2585   1.045       .  S
N2582      H2586   1.046       .  S
C2587      C2588   1.412       .  A
C2587      C2592   1.431       .  A
C2587      H2594   1.083       .  S
C2588      C2589   1.418       .  A
C2589      C2590   1.411       .  A
C2589      N2596   1.438       .  S
C2590      C2591   1.410       .  A
C2590      H2595   1.070       .  S
C2591      C2592   1.431       .  A
C2592      N2593   1.429       .  S
N2593      H2597   1.042       .  S
N2593      H2598   1.045       .  S
N2596      H2599   1.045       .  S
N2596      H2600   1.046       .  S
C2601      C2602   1.408       .  A
C2601      C2606   1.404       .  A
C2601      H2608   1.085       .  S
C2602      C2603   1.421       .  A
C2603      C2604   1.413       .  A
C2603      N2610   1.436       .  S
C2604      C2605   1.408       .  A
C2604      H2609   1.083       .  S
C2605      C2606   1.420       .  A
C2606      N2607   1.435       .  S
N2607      H2611   1.046       .  S
N2607      H2612   1.036       .  S
N2610      H2613   1.040       .  S
N2610      H2614   1.045       .  S
C2615      C2616   1.415       .  A
C2615      C2620   1.410       .  A
C2615      H2622   1.085       .  S
C2616      C2617   1.417       .  A
C2617      C2618   1.440       .  A
C2617      N2624   1.435       .  S
C2618      C2619   1.423       .  A
C2618      H2623   1.081       .  S
C2619      C2620   1.421       .  A
C2620      N2621   1.427       .  S
N2621      H2625   1.039       .  S
N2621      H2626   1.044       .  S
N2624      H2627   1.045       .  S
N2624      H2628   1.045       .  S
C2629      C2630   1.411       .  A
C2629      C2634   1.410       .  A
C2629      H2636   1.084       .  S
C2630      C2631   1.420       .  A
C2631      C2632   1.436       .  A
C2631      N2638   1.435       .  S
C2632      C2633   1.417       .  A
C2632      H2637   1.083       .  S
C2633      C2634   1.412       .  A
C2634      N2635   1.429       .  S
N2635      H2639   1.044       .  S
N2635      H2640   1.046       .  S
N2638      H2641   1.045       .  S
N2638      H2642   1.045       .  S
C2643      C2644   1.407       .  A
C2643      C2648   1.413       .  A
C2643      H2650   1.083       .  S
C2644      C2645   1.409       .  A
C2645      C2646   1.396       .  A
C2645      N2652   1.433       .  S
C2646      C2647   1.398       .  A
C2646      H2651   1.078       .  S
C2647      C2648   1.415       .  A
C2648      N2649   1.432       .  S
N2649      H2653   1.045       .  S
N2649      H2654   1.046       .  S
N2652      H2655   1.043       .  S
N2652      H2656   1.046       .  S
C2657      C2658   1.410       .  A
C2657      C2662   1.412       .  A
C2657      H2664   1.084       .  S
C2658      C2659   1.411       .  A
C2659      C2660   1.396       .  A
C2659      N2666   1.428       .  S
C2660      C2661   1.407       .  A
C2660      H2665   1.084       .  S
C2661      C2662   1.427       .  A
C2662      N2663   1.437       .  S
N2663      H2667   1.046       .  S
N2663      H2668   1.037       .  S
N2666      H2669   1.041       .  S
N2666      H2670   1.043       .  S
C2671      C2672   1.408       .  A
C2671      C2676   1.416       .  A
C2671      H2678   1.084       .  S
C2672      C2673   1.425       .  A
C2673      C2674   1.430       .  A
C2673      N2680   1.434       .  S
C2674      C2675   1.415       .  A
C2674      H2679   1.083       .  S
C2675      C2676   1.432       .  A
C2676      N2677   1.435       .  S
N2677      H2681   1.045       .  S
N2677      H2682   1.038       .  S
N2680      H2683   1.043       .  S
N2680      H2684   1.046       .  S
C2685      C2686   1.403       .  A
C2685      C2690   1.397       .  A
C2685      H2692   1.082       .  S
C2686      C2687   1.409       .  A
C2687      C2688   1.409       .  A
C2687      N2694   1.441       .  S
C2688      C2689   1.405       .  A
C2688      H2693   1.081       .  S
C2689      C2690   1.412       .  A
C2690      N2691   1.438       .  S
N2691      H2695   1.046       .  S
N2691      H2696   1.045       .  S
N2694      H2697   1.039       .  S
N2694      H2698   1.046       .  S
C2699      C2700   1.407       .  A
C2699      C2704   1.412       .  A
C2699      H2706   1.080       .  S
C2700      C2701   1.421       .  A
C2701      C2702   1.434       .  A
C2701      N2708   1.436       .  S
C2702      C2703   1.414       .  A
C2702      H2707   1.083       .  S
C2703      C2704   1.426       .  A
C2704      N2705   1.438       .  S
N2705      H2709   1.046       .  S
N2705      H2710   1.044       .  S
N2708      H2711   1.045       .  S
N2708      H2712   1.046       .  S
C2713      C2714   1.412       .  A
C2713      C2718   1.425       .  A
C2713      H2720   1.083       .  S
C2714      C2715   1.419       .  A
C2715      C2716   1.437       .  A
C2715      N2722   1.435       .  S
C2716      C2717   1.418       .  A
C2716      H2721   1.083       .  S
C2717      C2718   1.421       .  A
C2718      N2719   1.430       .  S
N2719      H2723   1.045       .  S
N2719      H2724   1.046       .  S
N2722      H2725   1.046       .  S
N2722      H2726   1.045       .  S
C2727      C2728   1.418       .  A
C2727      C2732   1.429       .  A
C2727      H2734   1.084       .  S
C2728      C2729   1.416       .  A
C2729      C2730   1.426       .  A
C2729      N2736   1.437       .  S
C2730      C2731   1.414       .  A
C2730      H2735   1.079       .  S
C2731      C2732   1.418       .  A
C2732      N2733   1.437       .  S
N2733      H2737   1.045       .  S
N2733      H2738   1.045       .  S
N2736      H2739   1.045       .  S
N2736      H2740   1.046       .  S
C2741      C2742   1.415       .  A
C2741      C2746   1.434       .  A
C2741      H2748   1.083       .  S
C2742      C2743   1.431       .  A
C2743      C2744   1.422       .  A
C2743      N2750   1.439       .  S
C2744      C2745   1.409       .  A
C2744      H2749   1.081       .  S
C2745      C2746   1.432       .  A
C2746      N2747   1.435       .  S
N2747      H2751   1.046       .  S
N2747      H2752   1.042       .  S
N2750      H2753   1.045       .  S
N2750      H2754   1.046       .  S
C2755      C2756   1.419       .  A
C2755      C2760   1.438       .  A
C2755      H2762   1.082       .  S
C2756      C2757   1.415       .  A
C2757      C2758   1.416       .  A
C2757      N2764   1.428       .  S
C2758      C2759   1.412       .  A
C2758      H2763   1.084       .  S
C2759      C2760   1.419       .  A
C2760      N2761   1.435       .  S
N2761      H2765   1.046       .  S
N2761      H2766   1.045       .  S
N2764      H2767   1.046       .  S
N2764      H2768   1.045       .  S
C2769      C2770   1.417       .  A
C2769      C2774   1.419       .  A
C2769      H2776   1.084       .  S
C2770      C2771   1.419       .  A
C2771      C2772   1.435       .  A
C2771      N2778   1.428       .  S
C2772      C2773   1.418       .  A
C2772      H2777   1.083       .  S
C2773      C2774   1.415       .  A
C2774      N2775   1.436       .  S
N2775      H2779   1.045       .  S
N2775      H2780   1.045       .  S
N2778      H2781   1.045       .  S
N2778      H2782   1.044       .  S
C2783      C2784   1.412       .  A
C2783      C2788   1.431       .  A
C2783      H2790   1.083       .  S
C2784      C2785   1.425       .  A
C2785      C2786   1.419       .  A
C2785      N2792   1.437       .  S
C2786      C2787   1.409       .  A
C2786      H2791   1.083       .  S
C2787      C2788   1.419       .  A
C2788      N2789   1.438       .  S
N2789      H2793   1.045       .  S
N2789      H2794   1.042       .  S
N2792      H2795   1.044       .  S
N2792      H2796   1.046       .  S
C2797      C2798   1.405       .  A
C2797      C2802   1.400       .  A
C2797      H2804   1.085       .  S
C2798      C2799   1.421       .  A
C2799      C2800   1.405       .  A
C2799      N2806   1.438       .  S
C2800      C2801   1.402       .  A
C2800      H2805   1.083       .  S
C2801      C2802   1.409       .  A
C2802      N2803   1.432       .  S
N2803      H2807   1.045       .  S
N2803      H2808   1.045       .  S
N2806      H2809   1.040       .  S
N2806      H2810   1.045       .  S
C2811      C2812   1.401       .  A
C2811      C2816   1.402       .  A
C2811      H2818   1.084       .  S
C2812      C2813   1.415       .  A
C2813      C2814   1.418       .  A
C2813      N2820   1.436       .  S
C2814      C2815   1.409       .  A
C2814      H2819   1.084       .  S
C2815      C2816   1.412       .  A
C2816      N2817   1.428       .  S
N2817      H2821   1.045       .  S
N2817      H2822   1.046       .  S
N2820      H2823   1.045       .  S
N2820      H2824   1.046       .  S
C2825      C2826   1.395       .  A
C2825      C2830   1.393       .  A
C2825      H2832   1.085       .  S
C2826      C2827   1.420       .  A
C2827      C2828   1.396       .  A
C2827      N2834   1.435       .  S
C2828      C2829   1.399       .  A
C2828      H2833   1.084       .  S
C2829      C2830   1.423       .  A
C2830      N2831   1.432       .  S
N2831      H2835   1.044       .  S
N2831      H2836   1.043       .  S
N2834      H2837   1.037       .  S
N2834      H2838   1.046       .  S
C2839      C2840   1.408       .  A
C2839      C2844   1.407       .  A
C2839      H2846   1.083       .  S
C2840      C2841   1.427       .  A
C2841      C2842   1.391       .  A
C2841      N2848   1.434       .  S
C2842      C2843   1.395       .  A
C2842      H2847   1.078       .  S
C2843      C2844   1.408       .  A
C2844      N2845   1.435       .  S
N2845      H2849   1.045       .  S
N2845      H2850   1.045       .  S
N2848      H2851   1.045       .  S
N2848      H2852   1.045       .  S
C2853      C2854   1.401       .  A
C2853      C2858   1.402       .  A
C2853      H2860   1.082       .  S
C2854      C2855   1.415       .  A
C2855      C2856   1.385       .  A
C2855      N2862   1.434       .  S
C2856      C2857   1.402       .  A
C2856      H2861   1.084       .  S
C2857      C2858   1.414       .  A
C2858      N2859   1.437       .  S
N2859      H2863   1.046       .  S
N2859      H2864   1.045       .  S
N2862      H2865   1.030       .  S
N2862      H2866   1.046       .  S
C2867      C2868   1.407       .  A
C2867      C2872   1.400       .  A
C2867      H2874   1.083       .  S
C2868      C2869   1.419       .  A
C2869      C2870   1.404       .  A
C2869      N2876   1.437       .  S
C2870      C2871   1.401       .  A
C2870      H2875   1.083       .  S
C2871      C2872   1.407       .  A
C2872      N2873   1.430       .  S
N2873      H2877   1.045       .  S
N2873      H2878   1.046       .  S
N2876      H2879   1.046       .  S
N2876      H2880   1.046       .  S
