geometry optimzed in LAMMPS
_audit_creation_date              2020-12-01 
_audit_creation_method            'lammps2cif' 
_symmetry_space_group_name_H-M    'P1' 
_symmetry_Int_Tables_number       1 
_symmetry_cell_setting            triclinic 
loop_ 
_symmetry_equiv_pos_as_xyz 
  x,y,z 
_cell_length_a                    31.76306377 
_cell_length_b                    31.9623335804592 
_cell_length_c                    34.419359780840864 
_cell_angle_alpha                 90.8935626765148 
_cell_angle_beta                  89.64404147524942 
_cell_angle_gamma                 89.1923752646139 
loop_ 
_atom_site_label 
_atom_site_type_symbol 
_atom_site_fract_x 
_atom_site_fract_y 
_atom_site_fract_z 
_atom_site_charge 
C1          C  0.34494569  0.40826869  0.34314909     0.85200
C2          C  0.32001749  0.38080024  0.37163953    -0.55100
C3          C  0.34324418  0.35423937  0.39478549     0.08100
C4          C  0.39216237  0.35932320  0.38730567     0.19000
C5          C  0.37577101  0.43245756  0.36894562    -0.55800
C6          C  0.40043701  0.40872677  0.39314509     0.08200
C7          C  0.37313583  0.37658502  0.32080453    -0.55300
C8          C  0.39815503  0.34983315  0.34188707     0.08700
H9          H  0.28582054  0.38172301  0.37265080     0.13300
H10         H  0.41187590  0.33913075  0.40605132    -0.01000
H11         H  0.37601845  0.46644160  0.36980410     0.13600
H12         H  0.37235264  0.37511747  0.28930003     0.13400
C13         C  0.14490393  0.09900242  0.14918091     0.85200
C14         C  0.11115080  0.12590636  0.17083693    -0.55100
C15         C  0.08659358  0.15247641  0.14886711     0.08100
C16         C  0.09980949  0.14870387  0.10387716     0.19000
C17         C  0.12008826  0.07580909  0.11728263    -0.55800
C18         C  0.09636274  0.09954298  0.09241887     0.08200
C19         C  0.17081593  0.13102837  0.12583148    -0.55300
C20         C  0.14927583  0.15939919  0.10302854     0.08700
H21         H  0.10771567  0.12432797  0.20217692     0.13300
H22         H  0.08073974  0.16928908  0.08495076    -0.01000
H23         H  0.11995339  0.04204476  0.11544557     0.13600
H24         H  0.20433722  0.12735453  0.12411542     0.13400
O25         O  0.03821989  0.46479819  0.42955557    -0.81500
O26         O  0.48077781  0.48516744  0.09183720    -0.81500
O27         O  0.09420476  0.48958238  0.54900112    -0.81500
O28         O  0.41576790  0.42547537  0.46109131    -0.81400
O29         O  0.04463304  0.47912054  0.07411039    -0.81600
O30         O  0.45025017  0.46377669  0.41702977    -0.81500
O31         O  0.45408501  0.45193457  0.04015739    -0.81500
O32         O  0.08527788  0.46913291  0.47437003    -0.81500
C33         C  0.07591585  0.46128697  0.43966691     1.08200
C34         C  0.45982834  0.45542122  0.07728858     1.08100
C35         C  0.05922930  0.44702075  0.05513296     1.08200
C36         C  0.42487974  0.43216013  0.42537495     1.08100
O37         O  0.45531738  0.03107776  0.42720483    -0.81500
O38         O  0.02945036  0.07775963  0.06197317    -0.81600
O39         O  0.06538368  0.05412978  0.46028960    -0.81500
O40         O  0.42136785  0.51771342  0.02283108    -0.81500
O41         O  0.46392531  0.55738582  0.05759778    -0.81500
O42         O  0.50032180  0.03123839  0.42567508    -0.81500
O43         O  0.42075439  0.03646416  0.47919531    -0.81400
O44         O  0.08575954  0.04692172  0.03888494    -0.81500
Co45       Co  0.48294291  0.98227653  0.45882781     1.51500
Co46       Co  0.99610977  0.51924950  0.05689001     1.51700
Co47       Co  0.06685211  0.00783611  0.49740828     1.51600
Co48       Co  0.46662517  0.48185641  0.98882534     1.51500
O49         O  0.50255752  0.50341454  0.49308597    -1.43400
C50         C  0.42409973  0.04768706  0.44543125     1.08100
C51         C  0.06927211  0.07543870  0.06134401     1.08200
C52         C  0.03798306  0.06567548  0.43579062     1.08200
C53         C  0.40827858  0.03247710  0.04732135     1.08100
O54         O  0.32021060  0.28567918  0.42051067    -0.81500
O55         O  0.28181657  0.24121716  0.06161600    -0.81500
O56         O  0.27360400  0.34079058  0.02756394    -0.81500
O57         O  0.27774625  0.17289083  0.49262445    -0.81400
O58         O  0.23708204  0.30689276  0.07252897    -0.81600
O59         O  0.29664555  0.20266783  0.43668407    -0.81500
O60         O  0.26830318  0.17933793  0.04509441    -0.81500
O61         O  0.29146547  0.34355133  0.44515119    -0.81500
C62         C  0.31927381  0.32578849  0.42315334     1.08200
C63         C  0.29197171  0.20353905  0.06367811     1.08100
C64         C  0.26763261  0.33008851  0.06249086     1.08200
C65         C  0.29941435  0.17320873  0.46048983     1.08100
O66         O  0.20818777  0.23086606  0.42942745    -0.81500
O67         O  0.16409035  0.27394792  0.03254860    -0.81600
O68         O  0.19885149  0.32893931  0.44369321    -0.81500
O69         O  0.17786137  0.18583152  0.04053804    -0.81500
O70         O  0.19602195  0.22307071  0.09038434    -0.81500
O71         O  0.23749980  0.30147766  0.39879382    -0.81500
O72         O  0.21079296  0.17730231  0.46654487    -0.81400
O73         O  0.19680316  0.33647730  0.51900051    -0.81500
Co74       Co  0.26484192  0.25462566  0.42663800     1.51500
Co75       Co  0.22291697  0.25428695  0.04404633     1.51700
Co76       Co  0.24433812  0.33013523  0.48388112     1.51600
Co77       Co  0.22771466  0.20746912  0.00716406     1.51500
O78         O  0.25560792  0.26610725  0.48613856    -1.43400
C79         C  0.20306346  0.19276363  0.43419095     1.08100
C80         C  0.15839719  0.31312305  0.03614804     1.08200
C81         C  0.20349076  0.31858367  0.40862198     1.08200
C82         C  0.17436759  0.19176094  0.07728565     1.08100
O83         O  0.02563037  0.30209863  0.30926070    -0.81500
O84         O  0.46645763  0.27664635  0.15702623    -0.81500
O85         O  0.07971921  0.25852205  0.22785225    -0.81500
O86         O  0.42539449  0.32253809  0.28124510    -0.81400
O87         O  0.03507608  0.28586143  0.18859303    -0.81600
O88         O  0.44197810  0.28301254  0.33014786    -0.81500
O89         O  0.43528725  0.31820463  0.20239447    -0.81500
O90         O  0.07258950  0.25755095  0.28657583    -0.81500
C91         C  0.06378767  0.28998450  0.30699979     1.08200
C92         C  0.44938165  0.31146550  0.16836161     1.08100
C93         C  0.07097026  0.28547925  0.20321979     1.08200
C94         C  0.42406941  0.31661922  0.31765631     1.08100
O95         O  0.45156793  0.19938317  0.28678690    -0.81500
O96         O  0.02881259  0.20766558  0.15291910    -0.81600
O97         O  0.03356650  0.18931270  0.29530563    -0.81500
O98         O  0.40187904  0.23980947  0.19681808    -0.81500
O99         O  0.45428408  0.19500270  0.18843446    -0.81500
O100        O  0.50697623  0.21890853  0.34078108    -0.81500
O101        O  0.39655306  0.23833408  0.27771255    -0.81400
O102        O  0.05378882  0.18403930  0.20822944    -0.81500
Co103      Co  0.48673044  0.24761876  0.29755921     1.51500
Co104      Co  0.99584405  0.23931891  0.19432027     1.51700
Co105      Co  0.03293735  0.22859551  0.25034483     1.51600
Co106      Co  0.41809724  0.27863611  0.24004591     1.51500
O107        O  0.47992527  0.26485052  0.24471484    -1.43400
C108        C  0.41321383  0.20249440  0.28018188     1.08100
C109        C  0.05447753  0.18285532  0.17028524     1.08200
C110        C  0.02961776  0.19613562  0.33207536     1.08200
C111        C  0.41730462  0.20744019  0.18016581     1.08100
O112        O  0.29573954  0.46807631  0.32555946    -0.81500
O113        O  0.25641384  0.00766481  0.15182411    -0.81500
O114        O  0.28735049  0.40633600  0.20821082    -0.81500
O115        O  0.27726631  0.06582778  0.23084868    -0.81400
O116        O  0.27927609  0.44981714  0.15922559    -0.81600
O117        O  0.31047269  0.03368384  0.27912540    -0.81500
O118        O  0.26946610  0.05750373  0.19309382    -0.81500
O119        O  0.31169253  0.42226350  0.28050995    -0.81500
C120        C  0.31651832  0.43506388  0.31508719     1.08200
C121        C  0.27596369  0.04014811  0.15942297     1.08100
C122        C  0.29744383  0.41922604  0.17481713     1.08200
C123        C  0.30801873  0.06298105  0.25484347     1.08100
O124        O  0.25414441  0.04434662  0.33541286    -0.81500
O125        O  0.19980246  0.43776640  0.17266116    -0.81600
O126        O  0.22527985  0.42642883  0.30719799    -0.81500
O127        O  0.18966640  0.08313578  0.20760394    -0.81500
O128        O  0.17886721  0.03007249  0.16879629    -0.81500
O129        O  0.20846371  0.49257188  0.30719432    -0.81500
O130        O  0.21943100  0.06999305  0.28360247    -0.81400
O131        O  0.19884191  0.41615155  0.23360740    -0.81500
Co132      Co  0.25698517  0.00888722  0.29342350     1.51500
Co133      Co  0.23642771  0.48449499  0.18278425     1.51700
Co134      Co  0.25521032  0.42239268  0.25556628     1.51600
Co135      Co  0.22249826  0.03598317  0.23096286     1.51500
O136        O  0.25468755  0.48409811  0.23909462    -1.43400
C137        C  0.23105165  0.07179009  0.31982912     1.08100
C138        C  0.18584308  0.41501255  0.19911790     1.08200
C139        C  0.20268966  0.45643739  0.31972735     1.08200
C140        C  0.17226672  0.06941321  0.17673125     1.08100
C141        C  0.34647452  0.17172603  0.26211567    -0.10500
C142        C  0.38836801  0.16514436  0.27261881     0.05700
C143        C  0.40523746  0.12378016  0.27274608    -0.04300
C144        C  0.37901440  0.09020474  0.26512277    -0.08700
C145        C  0.33697795  0.09731831  0.25579534     0.04800
C146        C  0.32085171  0.13860047  0.25313135    -0.03700
Br147      Br  0.26235711  0.15329913  0.24561056    -0.03400
H148        H  0.33291473  0.20298283  0.26132169     0.08700
H149        H  0.39124475  0.05847691  0.26698831     0.06700
Br150      Br  0.46294325  0.10948846  0.28234406    -0.03900
C151        C  0.17156313  0.34223629  0.19191892    -0.10500
C152        C  0.15613047  0.38324898  0.19032233     0.05700
C153        C  0.11289118  0.39194353  0.18915492    -0.04300
C154        C  0.08516961  0.35879710  0.19009938    -0.06500
C155        C  0.10061971  0.31770514  0.19414294     0.04800
C156        C  0.14414275  0.30927751  0.19432462    -0.03700
Br157      Br  0.16819737  0.25414013  0.19968262    -0.03400
H158        H  0.20516457  0.33612592  0.19392175     0.08700
H159        H  0.05159703  0.36538542  0.19075668     0.06700
Br160      Br  0.09071826  0.44808805  0.19089022    -0.03900
C161        C  0.31759937  0.38361601  0.08298379    -0.10500
C162        C  0.29606838  0.34677703  0.09157218     0.05700
C163        C  0.30091890  0.32907880  0.12864096    -0.04300
C164        C  0.32226157  0.35130087  0.15703033    -0.08700
C165        C  0.32694096  0.39399112  0.15124231     0.04800
C166        C  0.33412981  0.40721631  0.11314477    -0.03700
Br167      Br  0.35225598  0.46229820  0.10222192    -0.03400
H168        H  0.31717924  0.39667761  0.05412704     0.08700
H169        H  0.32222977  0.33928977  0.18631175     0.06700
Br170      Br  0.27276468  0.28062560  0.14592489    -0.03900
C171        C  0.23226561  0.17232085  0.37290035    -0.10500
C172        C  0.20072236  0.16598814  0.40049263     0.05700
C173        C  0.17750656  0.12894043  0.40000997    -0.04300
C174        C  0.18348123  0.10072492  0.36921844    -0.08700
C175        C  0.21764032  0.10609375  0.34394884     0.04800
C176        C  0.24489831  0.13941756  0.34947596    -0.03700
Br177      Br  0.30445303  0.13281793  0.34294582    -0.03400
H178        H  0.25300305  0.19883019  0.37543454     0.08700
H179        H  0.16551017  0.07213865  0.36809998     0.06700
Br180      Br  0.14533530  0.11192241  0.44400000    -0.03900
C181        C  0.12673786  0.32735171  0.39411199    -0.10500
C182        C  0.16824006  0.32228242  0.38002988     0.05700
C183        C  0.17403041  0.31468944  0.33958357    -0.04300
C184        C  0.13912037  0.30789466  0.31563408    -0.08700
C185        C  0.09784746  0.30919477  0.33054783     0.04800
C186        C  0.09182146  0.32084223  0.36997060    -0.03700
Br187      Br  0.03710771  0.32306019  0.39394281    -0.03400
H188        H  0.12124620  0.33362175  0.42474129     0.08700
H189        H  0.14441132  0.29961810  0.28532444     0.06700
Br190      Br  0.22837647  0.31200495  0.31465321    -0.03900
C191        C  0.36964155  0.19275723  0.08006470    -0.10500
C192        C  0.32671659  0.18974329  0.09037850     0.05700
C193        C  0.31742188  0.18158179  0.12950853    -0.04300
C194        C  0.34879193  0.18155388  0.15771212    -0.08700
C195        C  0.39098644  0.18833149  0.14864380     0.04800
C196        C  0.40171654  0.19086690  0.10867995    -0.03700
Br197      Br  0.45921328  0.19454486  0.09218509    -0.03400
H198        H  0.37818998  0.19855979  0.05008126     0.08700
H199        H  0.33916637  0.18046267  0.18799359     0.06700
Br200      Br  0.26157626  0.17701167  0.14801771    -0.03900
C201        C  0.36694680  0.14812434  0.42984008    -0.10500
C202        C  0.32948557  0.13886335  0.45002057     0.05700
C203        C  0.31945799  0.09661172  0.45492840    -0.04300
C204        C  0.34944239  0.06551351  0.44589419    -0.08700
C205        C  0.38976336  0.07544960  0.43156592     0.04800
C206        C  0.39634545  0.11652370  0.41978668    -0.03700
Br207      Br  0.44085692  0.12945624  0.38543833    -0.03400
H208        H  0.37333470  0.18001096  0.42165167     0.08700
H209        H  0.34256395  0.03348368  0.45339586     0.06700
Br210      Br  0.26488840  0.07935599  0.47168409    -0.03900
C211        C  0.13674492  0.36550038  0.08467180    -0.10500
C212        C  0.12384520  0.33346360  0.05903749     0.05700
C213        C  0.08230927  0.33475931  0.04552681    -0.04300
C214        C  0.05687956  0.37025584  0.05364627    -0.08700
C215        C  0.07345727  0.40657223  0.07175128     0.04800
C216        C  0.11375656  0.40304053  0.08810345    -0.03700
Br217      Br  0.14553287  0.45108684  0.10152318    -0.03400
H218        H  0.16898036  0.36519617  0.09497154     0.08700
H219        H  0.02704359  0.37239500  0.03877559     0.06700
Br220      Br  0.06240867  0.29392881  0.00889458    -0.03900
C221        C  0.09738728  0.45760964  0.37052226    -0.10500
C222        C  0.10866024  0.45162749  0.40954639     0.05700
C223        C  0.15131707  0.44197241  0.41798649    -0.04300
C224        C  0.18141712  0.44053082  0.38779915    -0.08700
C225        C  0.17001516  0.44993213  0.34951697     0.04800
C226        C  0.12759045  0.45777402  0.34103630    -0.03700
Br227      Br  0.10958746  0.47135548  0.28979475    -0.03400
H228        H  0.06512523  0.46504457  0.36292135     0.08700
H229        H  0.21418205  0.43442152  0.39459172     0.06700
Br230      Br  0.17109351  0.43223685  0.46975489    -0.03900
C231        C  0.33207787  0.03921496  0.06324537    -0.10500
C232        C  0.37363504  0.04650634  0.07429343     0.05700
C233        C  0.38106822  0.06153273  0.11280228    -0.04300
C234        C  0.34773784  0.06455924  0.14003096    -0.08700
C235        C  0.30681229  0.05332392  0.12953514     0.04800
C236        C  0.29894921  0.04306987  0.09001471    -0.03700
Br237      Br  0.24372872  0.02958426  0.07133981    -0.03400
H238        H  0.32549805  0.02836250  0.03395904     0.08700
H239        H  0.35456536  0.07213455  0.17010494     0.06700
Br240      Br  0.43636818  0.07342804  0.13189701    -0.03900
C241        C  0.43668929  0.38304206  0.08366543    -0.10500
C242        C  0.44739948  0.42115289  0.10179308     0.05700
C243        C  0.45308059  0.42306914  0.14223825    -0.04300
C244        C  0.45440111  0.38637219  0.16246824    -0.08700
C245        C  0.44770597  0.34773918  0.14379915     0.04800
C246        C  0.43633461  0.34631590  0.10460061    -0.03700
Br247      Br  0.41833836  0.29651387  0.07868778    -0.03400
H248        H  0.43020661  0.38131171  0.05280937     0.08700
H249        H  0.46123248  0.38814736  0.19329723     0.06700
Br250      Br  0.98885851  0.46219999  0.14627650    -0.03900
C251        C  0.55164115  0.08215846  0.36460969    -0.10500
C252        C  0.04808616  0.10025460  0.41119552     0.05700
C253        C  0.04701158  0.14171252  0.42519071    -0.04300
C254        C  0.04570120  0.17396660  0.39858341    -0.08700
C255        C  0.04609252  0.16470168  0.35860172     0.04800
C256        C  0.55628627  0.11572324  0.33939174    -0.03700
Br257      Br  0.57846693  0.10347972  0.28832628    -0.03400
H258        H  0.55817891  0.05049894  0.35433791     0.08700
H259        H  0.04056530  0.20576167  0.40913517     0.06700
Br260      Br  0.04130605  0.15537477  0.47945556    -0.03900
C261        C  0.33878717  0.41915913  0.85251657     0.85200
C262        C  0.31467956  0.39196722  0.88106223    -0.55100
C263        C  0.33789767  0.36379100  0.90210453     0.08100
C264        C  0.38726784  0.36683873  0.89137127     0.19000
C265        C  0.37226194  0.44122179  0.87685493    -0.55800
C266        C  0.39864729  0.41572569  0.89771591     0.08200
C267        C  0.36451929  0.38707543  0.82693778    -0.55300
C268        C  0.39037988  0.35886679  0.84518549     0.08700
H269        H  0.28059138  0.39427512  0.88355065     0.13300
H270        H  0.40750442  0.34519315  0.90817493    -0.01000
H271        H  0.37482150  0.47509504  0.87759122     0.13600
H272        H  0.36193512  0.38646725  0.79551830     0.13400
C273        C  0.14465424  0.09978706  0.65025978     0.85200
C274        C  0.11233100  0.12861500  0.67164435    -0.55100
C275        C  0.08786615  0.15461221  0.64909479     0.08100
C276        C  0.10060469  0.14890060  0.60397305     0.19000
C277        C  0.11835178  0.07616196  0.61985140    -0.55800
C278        C  0.09537509  0.10004053  0.59456960     0.08200
C279        C  0.17144615  0.12917040  0.62533250    -0.55300
C280        C  0.15056202  0.15629105  0.60121223     0.08700
H281        H  0.10905897  0.12800049  0.70304868     0.13300
H282        H  0.08206489  0.16923565  0.58438884    -0.01000
H283        H  0.11707512  0.04237673  0.61902009     0.13600
H284        H  0.20521757  0.12558150  0.62468000     0.13400
O285        O  0.02460318  0.49863790  0.90569491    -0.81500
O286        O  0.46639464  0.47014475  0.56740149    -0.81500
O287        O  0.06348013  0.44800685  0.01920995    -0.81500
O288        O  0.42764312  0.44068117  0.96086316    -0.81400
O289        O  0.03738002  0.46295557  0.57300803    -0.81600
O290        O  0.46197452  0.45993026  0.90777964    -0.81500
O291        O  0.47581543  0.42504700  0.51945173    -0.81500
O292        O  0.04978641  0.45664816  0.94734739    -0.81500
C293        C  0.05032090  0.46950409  0.91352710     1.08200
C294        C  0.46869581  0.43312855  0.55503098     1.08100
C295        C  0.07476281  0.45859379  0.56219628     1.08200
C296        C  0.43211143  0.43781936  0.92335723     1.08100
O297        O  0.44316530  0.03936661  0.90346293    -0.81500
O298        O  0.02876086  0.07705151  0.56652978    -0.81600
O299        O  0.06173812  0.06028838  0.96006167    -0.81500
O300        O  0.40941143  0.49095528  0.52697438    -0.81500
O301        O  0.44387729  0.54915497  0.54248320    -0.81500
O302        O  0.49569809  0.07318176  0.95807780    -0.81500
O303        O  0.41437460  0.02353070  0.96012629    -0.81400
O304        O  0.08624629  0.04987548  0.54039493    -0.81500
Co305      Co  0.47584695  0.01661540  0.94464117     1.51500
Co306      Co  0.99983773  0.51243117  0.56981107     1.51700
Co307      Co  0.06284098  0.00932834  0.99301609     1.51600
Co308      Co  0.45078589  0.46668923  0.48550762     1.51500
O309        O  0.51338051  0.52584830  0.99633733    -1.43400
C310        C  0.41383312  0.04415218  0.92837583     1.08100
C311        C  0.06860996  0.07657952  0.56392068     1.08200
C312        C  0.03180659  0.08547468  0.95188176     1.08200
C313        C  0.41587536  0.04197371  0.55992049     1.08100
O314        O  0.31808154  0.29547227  0.93098111    -0.81500
O315        O  0.27279609  0.23339680  0.56749826    -0.81500
O316        O  0.28343437  0.33314702  0.52790702    -0.81500
O317        O  0.26697260  0.16864467  0.98283326    -0.81400
O318        O  0.23795930  0.30079937  0.56691356    -0.81600
O319        O  0.30277024  0.21247251  0.94737350    -0.81500
O320        O  0.28161996  0.18073876  0.53106644    -0.81500
O321        O  0.27942903  0.35039633  0.94692386    -0.81500
C322        C  0.31240506  0.33496460  0.92969398     1.08200
C323        C  0.29310156  0.20016813  0.56149603     1.08100
C324        C  0.26990109  0.32414972  0.56176650     1.08200
C325        C  0.29700319  0.17622289  0.96045330     1.08100
O326        O  0.21051559  0.23229961  0.93011284    -0.81500
O327        O  0.16715682  0.27559409  0.51773048    -0.81600
O328        O  0.18840155  0.32755156  0.94638358    -0.81500
O329        O  0.19578159  0.16881116  0.54285570    -0.81500
O330        O  0.18462873  0.22354585  0.57972421    -0.81500
O331        O  0.23301407  0.30399229  0.90351118    -0.81500
O332        O  0.19823842  0.17925313  0.96580927    -0.81400
O333        O  0.18605903  0.33774018  0.02420504    -0.81500
Co334      Co  0.26511507  0.26018055  0.93288578     1.51500
Co335      Co  0.22129032  0.25030572  0.53668204     1.51700
Co336      Co  0.23268845  0.33408793  0.98652699     1.51600
Co337      Co  0.22855704  0.21165955  0.51095110     1.51500
O338        O  0.24539798  0.27085256  0.99082062    -1.43400
C339        C  0.20142583  0.19475209  0.93294823     1.08100
C340        C  0.16528053  0.31448709  0.52545874     1.08200
C341        C  0.19659763  0.31771177  0.91158474     1.08200
C342        C  0.17681026  0.18438496  0.57309269     1.08100
O343        O  0.02392131  0.30785028  0.80367508    -0.81500
O344        O  0.45852107  0.27463166  0.65814830    -0.81500
O345        O  0.07658352  0.26173780  0.72633668    -0.81500
O346        O  0.41453528  0.33008235  0.78159858    -0.81400
O347        O  0.03453332  0.28850479  0.68442871    -0.81600
O348        O  0.43615054  0.29421981  0.83156527    -0.81500
O349        O  0.42616607  0.31982392  0.69960501    -0.81500
O350        O  0.07014777  0.26088730  0.78426224    -0.81500
C351        C  0.06172114  0.29449205  0.80310511     1.08200
C352        C  0.44005669  0.30932398  0.66596770     1.08100
C353        C  0.06956823  0.28832159  0.70074209     1.08200
C354        C  0.41555949  0.32600287  0.81870356     1.08100
O355        O  0.44788514  0.20809821  0.79476686    -0.81500
O356        O  0.02935419  0.20894140  0.65149326    -0.81600
O357        O  0.03047994  0.19553342  0.79832226    -0.81500
O358        O  0.39673113  0.23882194  0.70088546    -0.81500
O359        O  0.45144043  0.19660202  0.69043818    -0.81500
O360        O  0.50232933  0.23618649  0.84775051    -0.81500
O361        O  0.39216082  0.24464875  0.78202624    -0.81400
O362        O  0.05261243  0.18589268  0.70781928    -0.81500
Co363      Co  0.48188081  0.25859151  0.80089924     1.51500
Co364      Co  0.99556831  0.24179761  0.69133819     1.51700
Co365      Co  0.03027753  0.23105101  0.74914530     1.51600
Co366      Co  0.41106058  0.28236663  0.74138639     1.51500
O367        O  0.47349720  0.26770479  0.74512118    -1.43400
C368        C  0.40994485  0.20953908  0.78568157     1.08100
C369        C  0.05468680  0.18458792  0.66978240     1.08200
C370        C  0.02395420  0.20547623  0.83455502     1.08200
C371        C  0.41318720  0.20692222  0.68375658     1.08100
O372        O  0.28024557  0.47316188  0.84004014    -0.81500
O373        O  0.25894834  0.02008457  0.64878678    -0.81500
O374        O  0.29863384  0.43285807  0.71606257    -0.81500
O375        O  0.27763494  0.07072343  0.73223271    -0.81400
O376        O  0.25231544  0.46352514  0.67521843    -0.81600
O377        O  0.31488180  0.03596427  0.77613167    -0.81500
O378        O  0.26895724  0.06555269  0.69499838    -0.81500
O379        O  0.31315953  0.44354827  0.79151931    -0.81500
C380        C  0.30969081  0.44798775  0.82755321     1.08200
C381        C  0.27708115  0.05239479  0.66013454     1.08100
C382        C  0.28312216  0.43716418  0.68276059     1.08200
C383        C  0.31015447  0.06714301  0.75433899     1.08100
O384        O  0.25957960  0.04784161  0.83281100    -0.81500
O385        O  0.17730037  0.46045504  0.70364891    -0.81600
O386        O  0.22298182  0.42638614  0.80818685    -0.81500
O387        O  0.18857261  0.08497926  0.70862721    -0.81500
O388        O  0.18090764  0.03248051  0.66798679    -0.81500
O389        O  0.19488195  0.48805442  0.80348004    -0.81500
O390        O  0.22083030  0.07267495  0.78315895    -0.81400
O391        O  0.21529599  0.41163769  0.73130959    -0.81500
Co392      Co  0.26129420  0.01212079  0.79085156     1.51500
Co393      Co  0.21781826  0.50689018  0.70992997     1.51700
Co394      Co  0.26267576  0.43239453  0.76136386     1.51600
Co395      Co  0.22315227  0.03898070  0.73063429     1.51500
O396        O  0.25846737  0.49488599  0.75291691    -1.43400
C397        C  0.23480954  0.07476766  0.81856159     1.08100
C398        C  0.18350207  0.42267538  0.71229022     1.08200
C399        C  0.19159225  0.45105616  0.81336503     1.08200
C400        C  0.17212987  0.07099917  0.67741846     1.08100
C401        C  0.34521009  0.17697738  0.76454648    -0.10500
C402        C  0.38698950  0.17145614  0.77595614     0.05700
C403        C  0.40550370  0.13081132  0.77444159    -0.04300
C404        C  0.38055800  0.09656319  0.76524064    -0.08700
C405        C  0.33820944  0.10247482  0.75594402     0.04800
C406        C  0.32086446  0.14342335  0.75408963    -0.03700
Br407      Br  0.26227768  0.15731440  0.74564353    -0.03400
H408        H  0.33050432  0.20778916  0.76457833     0.08700
H409        H  0.39397833  0.06522800  0.76604759     0.06700
Br410      Br  0.46392246  0.11879732  0.78357693    -0.03900
C411        C  0.16891311  0.34724070  0.70672834    -0.10500
C412        C  0.15457039  0.38867934  0.70089078     0.05700
C413        C  0.11302518  0.39509272  0.68747125    -0.04300
C414        C  0.08642686  0.36083526  0.68361535    -0.06500
C415        C  0.10041952  0.32045446  0.69313265     0.04800
C416        C  0.14272556  0.31334375  0.70238965    -0.03700
Br417      Br  0.16585390  0.25819986  0.71202729    -0.03400
H418        H  0.20067337  0.34061989  0.71696681     0.08700
H419        H  0.05367801  0.36632527  0.67606513     0.06700
Br420      Br  0.08865713  0.44903803  0.67746710    -0.03900
C421        C  0.31376446  0.37978056  0.59124172    -0.10500
C422        C  0.28695746  0.34554289  0.59584454     0.05700
C423        C  0.27138144  0.33676011  0.63329081    -0.04300
C424        C  0.27512676  0.36620826  0.66242332    -0.08700
C425        C  0.29358704  0.40424021  0.65509419     0.04800
C426        C  0.31781834  0.40892418  0.62153554    -0.03700
Br427      Br  0.36119985  0.44891883  0.61960017    -0.03400
H428        H  0.32985067  0.38498885  0.56383801     0.08700
H429        H  0.26083139  0.36043980  0.69082828     0.06700
Br430      Br  0.24063407  0.28844059  0.64698500    -0.03900
C431        C  0.23873482  0.17242888  0.87595508    -0.10500
C432        C  0.20289217  0.16834429  0.89911783     0.05700
C433        C  0.17719094  0.13327393  0.89525502    -0.04300
C434        C  0.18473756  0.10531454  0.86467761    -0.08700
C435        C  0.22196802  0.10870679  0.84316878     0.04800
C436        C  0.25091336  0.13981496  0.85195016    -0.03700
Br437      Br  0.31010581  0.13169693  0.84457739    -0.03400
H438        H  0.26115359  0.19695538  0.88180111     0.08700
H439        H  0.16486869  0.07824169  0.86097867     0.06700
Br440      Br  0.13917603  0.11779497  0.93554529    -0.03900
C441        C  0.12107910  0.32726284  0.89292293    -0.10500
C442        C  0.16314022  0.32003260  0.88109468     0.05700
C443        C  0.17101514  0.31167503  0.84106194    -0.04300
C444        C  0.13724512  0.30785320  0.81528813    -0.08700
C445        C  0.09526347  0.31266802  0.82774390     0.04800
C446        C  0.08752306  0.32454766  0.86678106    -0.03700
Br447      Br  0.03174801  0.33308011  0.88748748    -0.03400
H448        H  0.11375540  0.33327731  0.92331573     0.08700
H449        H  0.14383448  0.29875400  0.78528496     0.06700
Br450      Br  0.22629369  0.30279304  0.81907494    -0.03900
C451        C  0.36864726  0.18103435  0.58269961    -0.10500
C452        C  0.32523467  0.18585890  0.59099148     0.05700
C453        C  0.31323810  0.18507853  0.63047444    -0.04300
C454        C  0.34296688  0.18605310  0.66020631    -0.08700
C455        C  0.38630073  0.18665738  0.65266528     0.04800
C456        C  0.39903830  0.18082412  0.61317421    -0.03700
Br457      Br  0.45727167  0.17661332  0.59878436    -0.03400
H458        H  0.37921419  0.18053999  0.55278800     0.08700
H459        H  0.33175008  0.19054112  0.68932259     0.06700
Br460      Br  0.25599555  0.18576504  0.64659035    -0.03900
C461        C  0.36299906  0.15013809  0.92872636    -0.10500
C462        C  0.32546969  0.14150023  0.94872942     0.05700
C463        C  0.31446455  0.09925999  0.95463625    -0.04300
C464        C  0.34225193  0.06744907  0.94331543    -0.08700
C465        C  0.38073504  0.07620721  0.92543400     0.04800
C466        C  0.39001597  0.11775915  0.91623252    -0.03700
Br467      Br  0.43892267  0.13223383  0.88728405    -0.03400
H468        H  0.37131613  0.18210551  0.92245592     0.08700
H469        H  0.33462419  0.03544128  0.95027540     0.06700
Br470      Br  0.26228636  0.08122338  0.97726699    -0.03900
C471        C  0.14797994  0.36531676  0.57613140    -0.10500
C472        C  0.13207750  0.33668832  0.54835453     0.05700
C473        C  0.09230744  0.34500569  0.53258047    -0.04300
C474        C  0.07256882  0.38404060  0.54007031    -0.08700
C475        C  0.09323957  0.41575627  0.56142950     0.04800
C476        C  0.13111864  0.40571756  0.57991728    -0.03700
Br477      Br  0.16439463  0.44696675  0.60568712    -0.03400
H478        H  0.17843944  0.35925942  0.58913935     0.08700
H479        H  0.04274769  0.39089625  0.52628485     0.06700
Br480      Br  0.06645783  0.30583994  0.49788670    -0.03900
C481        C  0.07975162  0.46460320  0.84685265    -0.10500
C482        C  0.08335796  0.45400845  0.88586958     0.05700
C483        C  0.12084600  0.43311492  0.89811510    -0.04300
C484        C  0.15431415  0.42615714  0.87182625    -0.08700
C485        C  0.15207125  0.44092167  0.83388680     0.04800
C486        C  0.11364296  0.45908405  0.82129045    -0.03700
Br487      Br  0.10715302  0.48355270  0.77129063    -0.03400
H488        H  0.05153947  0.48039071  0.83676941     0.08700
H489        H  0.18386781  0.41351073  0.88237748     0.06700
Br490      Br  0.13206810  0.41853105  0.95114276    -0.03900
C491        C  0.34021321  0.06417196  0.56889786    -0.10500
C492        C  0.38113674  0.06154625  0.58405835     0.05700
C493        C  0.38638190  0.07052058  0.62441072    -0.04300
C494        C  0.35100302  0.07434077  0.64903272    -0.08700
C495        C  0.31022110  0.06972038  0.63446298     0.04800
C496        C  0.30500029  0.06812615  0.59373792    -0.03700
Br497      Br  0.25005161  0.06314800  0.57148274    -0.03400
H498        H  0.33528415  0.05864900  0.53816238     0.08700
H499        H  0.35579586  0.07591946  0.68007004     0.06700
Br500      Br  0.44028459  0.07196565  0.64960436    -0.03900
C501        C  0.44456523  0.36262865  0.57028485    -0.10500
C502        C  0.45999959  0.40117738  0.58306702     0.05700
C503        C  0.46413367  0.40998558  0.62332310    -0.04300
C504        C  0.45393586  0.37993126  0.64953471    -0.08700
C505        C  0.44059281  0.34089298  0.63683357     0.04800
C506        C  0.43493860  0.33217950  0.59707637    -0.03700
Br507      Br  0.41290546  0.28058482  0.57790685    -0.03400
H508        H  0.43992870  0.35627181  0.53962576     0.08700
H509        H  0.45880131  0.38646013  0.68017606     0.06700
Br510      Br  0.98160199  0.46331418  0.64341986    -0.03900
C511        C  0.56192811  0.10816870  0.89137379    -0.10500
C512        C  0.03992218  0.11904906  0.92517073     0.05700
C513        C  0.02989487  0.16076740  0.93423360    -0.04300
C514        C  0.02848275  0.18967651  0.90444758    -0.08700
C515        C  0.03672745  0.17710811  0.86561878     0.04800
C516        C  0.55976527  0.13765833  0.86205968    -0.03700
Br517      Br  0.58516992  0.12225492  0.81293060    -0.03400
H518        H  0.57498141  0.07738002  0.88462067     0.08700
H519        H  0.01846816  0.22145510  0.91152459     0.06700
Br520      Br  0.01657265  0.17881679  0.98628531    -0.03900
C521        C  0.33863088  0.90692490  0.34537426     0.85200
C522        C  0.31489630  0.87567116  0.37080500    -0.55100
C523        C  0.33878535  0.85140954  0.39527295     0.08100
C524        C  0.38758817  0.86104945  0.39019611     0.19000
C525        C  0.36410913  0.93300845  0.37446963    -0.55800
C526        C  0.38968648  0.91078875  0.39895335     0.08200
C527        C  0.37153917  0.87992299  0.32326918    -0.55300
C528        C  0.39753256  0.85425857  0.34436970     0.08700
H529        H  0.28073865  0.87412717  0.37042449     0.13300
H530        H  0.40810938  0.84211970  0.40932773    -0.01000
H531        H  0.36193917  0.96695349  0.37568609     0.13600
H532        H  0.37267544  0.88027265  0.29174425     0.13400
C533        C  0.15171590  0.58866286  0.13786324     0.85200
C534        C  0.12108333  0.61931608  0.15949277    -0.55100
C535        C  0.09500013  0.64425493  0.13737999     0.08100
C536        C  0.10514564  0.63615791  0.09164817     0.19000
C537        C  0.12298022  0.56431671  0.10978397    -0.55800
C538        C  0.09908392  0.58749037  0.08453151     0.08200
C539        C  0.17749592  0.61684018  0.10994190    -0.55300
C540        C  0.15487672  0.64156392  0.08446484     0.08700
H541        H  0.11936103  0.61995765  0.19100396     0.13300
H542        H  0.08551376  0.65559372  0.07215722    -0.01000
H543        H  0.12142076  0.53107107  0.10998879     0.13600
H544        H  0.21164591  0.61648089  0.10996183     0.13400
O545        O  0.02361978  0.98645591  0.41413529    -0.81500
O546        O  0.45903100  0.96919716  0.06700309    -0.81500
O547        O  0.07105540  0.96003537  0.52945347    -0.81500
O548        O  0.40315622  0.95106660  0.46139730    -0.81400
O549        O  0.04465869  0.98546529  0.07786286    -0.81600
O550        O  0.45392477  0.94679361  0.41837773    -0.81500
O551        O  0.46543562  0.92661094  0.01688460    -0.81500
O552        O  0.06100978  0.96181153  0.45910136    -0.81500
C553        C  0.05575433  0.96696917  0.42378981     1.08200
C554        C  0.46284388  0.93293053  0.05329528     1.08100
C555        C  0.06250400  0.95607247  0.05752772     1.08200
C556        C  0.41683943  0.93576980  0.42822443     1.08100
O557        O  0.44840170  0.55602427  0.45705391    -0.81500
O558        O  0.03235406  0.57018000  0.05366911    -0.81600
O559        O  0.06085438  0.55453111  0.45740561    -0.81500
O560        O  0.40472565  0.99793005  0.02767918    -0.81500
O561        O  0.44310957  0.05167194  0.04763161    -0.81500
O562        O  0.52026986  0.56864820  0.44546994    -0.81500
O563        O  0.40766144  0.50582309  0.46021632    -0.81400
O564        O  0.08718825  0.53436279  0.03328735    -0.81500
Co565      Co  0.48890164  0.51809242  0.43566602     1.51500
Co566      Co  0.99514029  0.02439254  0.06129953     1.51700
Co567      Co  0.07368023  0.52246798  0.50368827     1.51600
Co568      Co  0.44506234  0.97386984  0.98572275     1.51500
O569        O  0.50359691  0.01361528  0.50929661    -1.43400
C570        C  0.41254718  0.54385295  0.45573017     1.08100
C571        C  0.07176742  0.56453944  0.05421629     1.08200
C572        C  0.03471659  0.55188473  0.42984672     1.08200
C573        C  0.42682538  0.54600135  0.05050652     1.08100
O574        O  0.31805520  0.78578494  0.42847754    -0.81500
O575        O  0.24970793  0.72842552  0.06922731    -0.81500
O576        O  0.28349871  0.82710523  0.01641503    -0.81500
O577        O  0.25621297  0.66491323  0.48643889    -0.81400
O578        O  0.24019089  0.79211465  0.05395462    -0.81600
O579        O  0.29541324  0.70549801  0.45036791    -0.81500
O580        O  0.28714655  0.69696029  0.02691774    -0.81500
O581        O  0.28383426  0.84382642  0.44352699    -0.81500
C582        C  0.31466125  0.82550683  0.42571470     1.08200
C583        C  0.28335181  0.70812756  0.06193630     1.08100
C584        C  0.26990639  0.81706088  0.04971944     1.08200
C585        C  0.28776653  0.67061440  0.46552917     1.08100
O586        O  0.20589568  0.73132434  0.43322502    -0.81500
O587        O  0.16073867  0.78250269  0.02461031    -0.81600
O588        O  0.19143421  0.82780804  0.44632062    -0.81500
O589        O  0.20802055  0.65412507  0.03042010    -0.81500
O590        O  0.17131411  0.70756730  0.04954653    -0.81500
O591        O  0.23449612  0.80033009  0.40424987    -0.81500
O592        O  0.18830276  0.67926711  0.46690063    -0.81400
O593        O  0.19619354  0.84219543  0.52569597    -0.81500
Co594      Co  0.26265303  0.75461623  0.43300587     1.51500
Co595      Co  0.21342257  0.74930545  0.02465753     1.51700
Co596      Co  0.23869430  0.83223510  0.48525426     1.51600
Co597      Co  0.23221812  0.70117690  0.99677943     1.51500
O598        O  0.24519162  0.76856269  0.49043690    -1.43400
C599        C  0.19477941  0.69425514  0.43418406     1.08100
C600        C  0.16393820  0.82160417  0.02583099     1.08200
C601        C  0.19864600  0.81510524  0.41182856     1.08200
C602        C  0.17833343  0.66830846  0.05284227     1.08100
O603        O  0.03130422  0.79271000  0.29835178    -0.81500
O604        O  0.46051606  0.77031707  0.15730841    -0.81500
O605        O  0.08357573  0.74922414  0.22132600    -0.81500
O606        O  0.42791807  0.82877837  0.28280071    -0.81400
O607        O  0.04178171  0.77385794  0.17781933    -0.81600
O608        O  0.44694751  0.79098835  0.33250981    -0.81500
O609        O  0.43420917  0.81867885  0.19960339    -0.81500
O610        O  0.07672727  0.74464317  0.28036760    -0.81500
C611        C  0.06839956  0.77818370  0.29969242     1.08200
C612        C  0.44582569  0.80670663  0.16537273     1.08100
C613        C  0.07601272  0.77508908  0.19540324     1.08200
C614        C  0.42660861  0.82321088  0.31962934     1.08100
O615        O  0.45476465  0.70650745  0.29400475    -0.81500
O616        O  0.03371634  0.69670944  0.14222553    -0.81600
O617        O  0.03424002  0.67744467  0.28650750    -0.81500
O618        O  0.39757798  0.74195070  0.20310026    -0.81500
O619        O  0.44665162  0.69421252  0.19111045    -0.81500
O620        O  0.51442700  0.72663117  0.34333517    -0.81500
O621        O  0.39930111  0.74538268  0.28446424    -0.81400
O622        O  0.06126181  0.67530351  0.19755644    -0.81500
Co623      Co  0.49080515  0.75398185  0.29979490     1.51500
Co624      Co  0.00077703  0.72941461  0.18342763     1.51700
Co625      Co  0.03755112  0.71750137  0.24148856     1.51600
Co626      Co  0.41800414  0.78286054  0.24292842     1.51500
O627        O  0.47931415  0.76685540  0.24575251    -1.43400
C628        C  0.41628158  0.70972961  0.28858416     1.08100
C629        C  0.06135855  0.67362445  0.15938385     1.08200
C630        C  0.02899611  0.68505985  0.32320291     1.08200
C631        C  0.40947160  0.70886886  0.18522390     1.08100
O632        O  0.28990292  0.96588655  0.32723791    -0.81500
O633        O  0.27850267  0.51085193  0.15129778    -0.81500
O634        O  0.27091007  0.90374744  0.21270924    -0.81500
O635        O  0.28298306  0.57786107  0.24030192    -0.81400
O636        O  0.25898397  0.94670129  0.16362979    -0.81600
O637        O  0.32001096  0.53357136  0.27368857    -0.81500
O638        O  0.27357790  0.56778840  0.18688515    -0.81500
O639        O  0.30123578  0.91534019  0.28443386    -0.81500
C640        C  0.30915528  0.93163219  0.31733588     1.08200
C641        C  0.28941546  0.54774170  0.15763583     1.08100
C642        C  0.27616501  0.91473608  0.17799929     1.08200
C643        C  0.31606535  0.56872240  0.25735396     1.08100
O644        O  0.26283159  0.54958106  0.32968565    -0.81500
O645        O  0.18232793  0.94127896  0.18214857    -0.81600
O646        O  0.21891755  0.92645028  0.31388305    -0.81500
O647        O  0.18578857  0.56922235  0.20133009    -0.81500
O648        O  0.19703008  0.52555780  0.15332882    -0.81500
O649        O  0.19992655  0.99077258  0.30789826    -0.81500
O650        O  0.21877980  0.57345613  0.28360734    -0.81400
O651        O  0.18618071  0.92346889  0.24297535    -0.81500
Co652      Co  0.26476985  0.51046577  0.28930262     1.51500
Co653      Co  0.22172305  0.98524987  0.19148562     1.51700
Co654      Co  0.24451614  0.92123962  0.26145610     1.51600
Co655      Co  0.23579037  0.54517989  0.23122140     1.51500
O656        O  0.25267179  0.98224579  0.24468889    -1.43400
C657        C  0.23506059  0.57534234  0.31813506     1.08100
C658        C  0.17285983  0.91763194  0.20920403     1.08200
C659        C  0.19295490  0.95525674  0.32076191     1.08200
C660        C  0.17927148  0.55946229  0.16577793     1.08100
C661        C  0.35289645  0.67804320  0.26580960    -0.10500
C662        C  0.39226110  0.67214301  0.28207768     0.05700
C663        C  0.40854002  0.63109070  0.28735893    -0.04300
C664        C  0.38464772  0.59686062  0.27639888    -0.08700
C665        C  0.34461502  0.60321633  0.26127649     0.04800
C666        C  0.32867573  0.64473882  0.25577437    -0.03700
Br667      Br  0.27142220  0.66170286  0.24309457    -0.03400
H668        H  0.33984095  0.70917881  0.26181246     0.08700
H669        H  0.39638504  0.56544051  0.28153396     0.06700
Br670      Br  0.46091560  0.61840247  0.31173657    -0.03900
C671        C  0.16682681  0.84316880  0.21054633    -0.10500
C672        C  0.14840382  0.88161806  0.20160626     0.05700
C673        C  0.10841377  0.88450720  0.18529679    -0.04300
C674        C  0.08625523  0.84805954  0.17910852    -0.06500
C675        C  0.10401134  0.80937382  0.18973192     0.04800
C676        C  0.14535271  0.80674377  0.20371120    -0.03700
Br677      Br  0.17430013  0.75459973  0.21333028    -0.03400
H678        H  0.19818674  0.84150646  0.22287011     0.08700
H679        H  0.05403009  0.85037469  0.16911009     0.06700
Br680      Br  0.08126379  0.93749058  0.17696361    -0.03900
C681        C  0.31301233  0.86866450  0.08554137    -0.10500
C682        C  0.28338913  0.83654493  0.08561070     0.05700
C683        C  0.26187736  0.82668049  0.12070318    -0.04300
C684        C  0.27334461  0.84608484  0.15436349    -0.08700
C685        C  0.29439288  0.88367131  0.15224981     0.04800
C686        C  0.31671665  0.89408335  0.11857829    -0.03700
Br687      Br  0.34935923  0.94373100  0.11642406    -0.03400
H688        H  0.32938994  0.87686652  0.05902900     0.08700
H689        H  0.25616260  0.83799263  0.18063524     0.06700
Br690      Br  0.20782886  0.79925633  0.12558336    -0.03900
C691        C  0.23637510  0.67163062  0.37894801    -0.10500
C692        C  0.19918639  0.66758042  0.40019925     0.05700
C693        C  0.17299901  0.63325732  0.39363146    -0.04300
C694        C  0.18282229  0.60499622  0.36364896    -0.08700
C695        C  0.22168252  0.60785975  0.34467857     0.04800
C696        C  0.24985921  0.63935720  0.35492561    -0.03700
Br697      Br  0.30925249  0.63418378  0.34695681    -0.03400
H698        H  0.25807495  0.69653843  0.38552980     0.08700
H699        H  0.16245665  0.57869570  0.35788009     0.06700
Br700      Br  0.12795565  0.62107171  0.42823932    -0.03900
C701        C  0.12312615  0.82050427  0.39046068    -0.10500
C702        C  0.16575993  0.81363603  0.38074494     0.05700
C703        C  0.17542655  0.79972289  0.34213953    -0.04300
C704        C  0.14306417  0.79093220  0.31610283    -0.08700
C705        C  0.10066203  0.79621045  0.32616557     0.04800
C706        C  0.09079801  0.81243217  0.36370990    -0.03700
Br707      Br  0.03397678  0.81979581  0.38208321    -0.03400
H708        H  0.11449390  0.82998660  0.41988184     0.08700
H709        H  0.15134629  0.77807778  0.28737907     0.06700
Br710      Br  0.23149533  0.78937458  0.32213057    -0.03900
C711        C  0.35879104  0.68902408  0.08471268    -0.10500
C712        C  0.31593746  0.69856629  0.09331195     0.05700
C713        C  0.30477774  0.70001505  0.13308831    -0.04300
C714        C  0.33563459  0.69914281  0.16225075    -0.08700
C715        C  0.37889133  0.69348762  0.15420860     0.04800
C716        C  0.38983533  0.68581146  0.11456159    -0.03700
Br717      Br  0.44700807  0.67420797  0.09913836    -0.03400
H718        H  0.36862947  0.68561684  0.05463398     0.08700
H719        H  0.32564137  0.70532292  0.19181158     0.06700
Br720      Br  0.24731260  0.70088079  0.14996247    -0.03900
C721        C  0.35659959  0.64547835  0.44339517    -0.10500
C722        C  0.31728440  0.63612566  0.45917848     0.05700
C723        C  0.30737778  0.59426689  0.46794471    -0.04300
C724        C  0.33819766  0.56341913  0.46336707    -0.08700
C725        C  0.37853645  0.57381024  0.45103083     0.04800
C726        C  0.38703935  0.61477173  0.43867309    -0.03700
Br727      Br  0.43904414  0.63196507  0.41508489    -0.03400
H728        H  0.36425016  0.67711503  0.43515769     0.08700
H729        H  0.33106944  0.53140408  0.47081485     0.06700
Br730      Br  0.25323781  0.57627112  0.48609404    -0.03900
C731        C  0.14969602  0.88200936  0.06957417    -0.10500
C732        C  0.13351514  0.84863948  0.04761604     0.05700
C733        C  0.08977716  0.84621393  0.04281739    -0.04300
C734        C  0.06386896  0.87962887  0.05590371    -0.08700
C735        C  0.08093996  0.91660689  0.07219408     0.04800
C736        C  0.12415127  0.91596844  0.08104500    -0.03700
Br737      Br  0.15253990  0.96481935  0.09823837    -0.03400
H738        H  0.18337376  0.88392531  0.07412912     0.08700
H739        H  0.03148077  0.87964599  0.04666072     0.06700
Br740      Br  0.06506887  0.80253598  0.01193808    -0.03900
C741        C  0.08241346  0.96654050  0.35669156    -0.10500
C742        C  0.08727748  0.95298163  0.39500121     0.05700
C743        C  0.12478122  0.93175897  0.40564677    -0.04300
C744        C  0.15807865  0.92885704  0.37916631    -0.08700
C745        C  0.15486886  0.94804762  0.34308384     0.04800
C746        C  0.11613317  0.96487097  0.33091270    -0.03700
Br747      Br  0.10827356  0.98820460  0.28028918    -0.03400
H748        H  0.05341231  0.98155539  0.34753692     0.08700
H749        H  0.18773849  0.91496157  0.38808402     0.06700
Br750      Br  0.13483870  0.91001347  0.45665212    -0.03900
C751        C  0.34925622  0.55825399  0.06357128    -0.10500
C752        C  0.39096855  0.56091705  0.07664678     0.05700
C753        C  0.39695082  0.57036704  0.11694444    -0.04300
C754        C  0.36234937  0.57204840  0.14296723    -0.08700
C755        C  0.32124317  0.56478146  0.13010198     0.04800
C756        C  0.31491243  0.55998600  0.08967244    -0.03700
Br757      Br  0.26005032  0.54837129  0.06960759    -0.03400
H758        H  0.34333121  0.55108104  0.03335297     0.08700
H759        H  0.36816706  0.57495280  0.17388517     0.06700
Br760      Br  0.45153100  0.57603594  0.14019699    -0.03900
C761        C  0.44885379  0.85979824  0.06858501    -0.10500
C762        C  0.45972190  0.89982632  0.08121682     0.05700
C763        C  0.46439214  0.90875850  0.12149266    -0.04300
C764        C  0.45767579  0.87778932  0.14774537    -0.08700
C765        C  0.44716083  0.83773326  0.13535497     0.04800
C766        C  0.44291735  0.82847908  0.09536032    -0.03700
Br767      Br  0.42726234  0.77538372  0.07474162    -0.03400
H768        H  0.44459300  0.85296965  0.03791885     0.08700
H769        H  0.46214903  0.88497386  0.17833257     0.06700
Br770      Br  0.97795752  0.96098187  0.14947752    -0.03900
C771        C  0.57268592  0.59263013  0.37176867    -0.10500
C772        C  0.03539967  0.58575525  0.40263707     0.05700
C773        C  0.02440114  0.62634183  0.41569238    -0.04300
C774        C  0.02612724  0.65925667  0.39002103    -0.08700
C775        C  0.03852878  0.65220082  0.35123894     0.04800
C776        C  0.56596958  0.62328777  0.34362525    -0.03700
Br777      Br  0.56891189  0.60444281  0.29029299    -0.03400
H778        H  0.57619463  0.56017819  0.36253781     0.08700
H779        H  0.01515219  0.68984232  0.39998952     0.06700
Br780      Br  0.00414302  0.63788630  0.46755902    -0.03900
C781        C  0.34336576  0.90910174  0.83992672     0.85200
C782        C  0.31946873  0.87833012  0.86547155    -0.55100
C783        C  0.34291410  0.85196398  0.88810436     0.08100
C784        C  0.39214464  0.85998569  0.88200279     0.19000
C785        C  0.37151509  0.93342077  0.86861207    -0.55800
C786        C  0.39732416  0.90982320  0.89220487     0.08200
C787        C  0.37419983  0.88134904  0.81599857    -0.55300
C788        C  0.39985939  0.85376912  0.83533128     0.08700
H789        H  0.28524680  0.87775039  0.86563269     0.13300
H790        H  0.41219684  0.83932403  0.89999012    -0.01000
H791        H  0.36928601  0.96726841  0.87156539     0.13600
H792        H  0.37385975  0.88247801  0.78449677     0.13400
C793        C  0.15129716  0.60621448  0.65098793     0.85200
C794        C  0.11875038  0.63201950  0.67436413    -0.55100
C795        C  0.09209397  0.65699951  0.65337232     0.08100
C796        C  0.10185833  0.65356685  0.60821806     0.19000
C797        C  0.12509454  0.58152955  0.62143170    -0.55800
C798        C  0.09901098  0.60455777  0.59821071     0.08200
C799        C  0.17472283  0.63806791  0.62606406    -0.55300
C800        C  0.15044475  0.66542060  0.60504624     0.08700
H801        H  0.11712427  0.63032345  0.70582789     0.13300
H802        H  0.08080258  0.67338431  0.59035971    -0.01000
H803        H  0.12644651  0.54756763  0.61942294     0.13600
H804        H  0.20827088  0.63554033  0.62195283     0.13400
O805        O  0.02321209  0.01066966  0.90973407    -0.81500
O806        O  0.45144078  0.96531393  0.56464012    -0.81500
O807        O  0.06718563  0.95934651  0.02181336    -0.81500
O808        O  0.40253754  0.93818406  0.96026169    -0.81400
O809        O  0.04676890  0.98720674  0.58386437    -0.81600
O810        O  0.45362984  0.95663238  0.92140029    -0.81500
O811        O  0.46665417  0.93003098  0.51356031    -0.81500
O812        O  0.05156461  0.96964753  0.95052724    -0.81500
C813        C  0.05053337  0.98284200  0.91677936     1.08200
C814        C  0.45837543  0.93073996  0.54913245     1.08100
C815        C  0.06596716  0.95774018  0.56501286     1.08200
C816        C  0.41975349  0.93411983  0.92672392     1.08100
O817        O  0.45526054  0.54204912  0.93476313    -0.81500
O818        O  0.04494460  0.55341915  0.58710483    -0.81600
O819        O  0.06659862  0.54720644  0.95368349    -0.81500
O820        O  0.40781419  0.01267404  0.53429803    -0.81500
O821        O  0.45377005  0.05118435  0.56816846    -0.81500
O822        O  0.53191108  0.53080889  0.91061556    -0.81500
O823        O  0.41799366  0.52016813  0.98218340    -0.81400
O824        O  0.07492796  0.57760212  0.53462095    -0.81500
Co825      Co  0.49545112  0.49649675  0.94593945     1.51500
Co826      Co  0.99641358  0.02304892  0.56441436     1.51700
Co827      Co  0.06319182  0.49703697  0.98859702     1.51600
Co828      Co  0.44808046  0.98455679  0.49234973     1.51500
O829        O  0.49899662  0.00414007  0.99923282    -1.43400
C830        C  0.42133827  0.54368337  0.95307701     1.08100
C831        C  0.06963017  0.57942805  0.57135572     1.08200
C832        C  0.03876844  0.57456149  0.94482732     1.08200
C833        C  0.41063655  0.52701175  0.54460932     1.08100
O834        O  0.32098704  0.78346218  0.91572561    -0.81500
O835        O  0.28381561  0.73406405  0.55789417    -0.81500
O836        O  0.28330936  0.83592638  0.52412382    -0.81500
O837        O  0.25831072  0.65998440  0.96075146    -0.81400
O838        O  0.24907980  0.80422507  0.57234715    -0.81600
O839        O  0.30625815  0.70181810  0.93852107    -0.81500
O840        O  0.25560308  0.67596584  0.54950472    -0.81500
O841        O  0.28710452  0.84006458  0.93452906    -0.81500
C842        C  0.31762871  0.82326644  0.91567064     1.08200
C843        C  0.28514836  0.69605415  0.56526890     1.08100
C844        C  0.27954339  0.82616751  0.55965924     1.08200
C845        C  0.29361613  0.66539945  0.94511643     1.08100
O846        O  0.22117567  0.70654575  0.90888535    -0.81500
O847        O  0.16846555  0.78194804  0.53853942    -0.81600
O848        O  0.19876346  0.82220704  0.93345928    -0.81500
O849        O  0.16911137  0.69526931  0.54231724    -0.81500
O850        O  0.19940627  0.72526891  0.59148370    -0.81500
O851        O  0.23440011  0.78666971  0.88857422    -0.81500
O852        O  0.18170805  0.69974561  0.96241261    -0.81400
O853        O  0.19584649  0.83873907  0.01122248    -0.81500
Co854      Co  0.26931010  0.74502649  0.91737046     1.51500
Co855      Co  0.22571584  0.75474659  0.54469106     1.51700
Co856      Co  0.24244659  0.82347438  0.97379157     1.51600
Co857      Co  0.22009646  0.70768999  0.50798777     1.51500
O858        O  0.24751659  0.75769363  0.97298189    -1.43400
C859        C  0.18765001  0.69453677  0.92578077     1.08100
C860        C  0.16748825  0.82154647  0.54119615     1.08200
C861        C  0.20243817  0.80816753  0.89907916     1.08200
C862        C  0.17234473  0.69816008  0.57914368     1.08100
O863        O  0.02242325  0.80152365  0.80789639    -0.81500
O864        O  0.45784925  0.76346489  0.64595288    -0.81500
O865        O  0.06968365  0.76354911  0.73283510    -0.81500
O866        O  0.42096388  0.82401548  0.77114731    -0.81400
O867        O  0.03132387  0.78792046  0.68727067    -0.81600
O868        O  0.44827881  0.79023060  0.82038655    -0.81500
O869        O  0.42842657  0.81051750  0.68788693    -0.81500
O870        O  0.06551665  0.76041432  0.77354409    -0.81500
C871        C  0.05951681  0.78947294  0.80020501     1.08200
C872        C  0.44125853  0.79906943  0.65398909     1.08100
C873        C  0.06487607  0.78918407  0.70535573     1.08200
C874        C  0.42512433  0.82091806  0.80830403     1.08100
O875        O  0.45490749  0.70473708  0.78381540    -0.81500
O876        O  0.03113100  0.70681067  0.65838604    -0.81600
O877        O  0.03432214  0.69574280  0.79542322    -0.81500
O878        O  0.39899652  0.73037820  0.69407034    -0.81500
O879        O  0.45328048  0.68773987  0.68304688    -0.81500
O880        O  0.51641223  0.72730540  0.82835743    -0.81500
O881        O  0.39673103  0.73982525  0.77487294    -0.81400
O882        O  0.06101402  0.68547699  0.71322162    -0.81500
Co883      Co  0.49060155  0.75315471  0.78611324     1.51500
Co884      Co  0.99420299  0.74095395  0.69597474     1.51700
Co885      Co  0.02131849  0.72482177  0.74201381     1.51600
Co886      Co  0.41510318  0.77550192  0.73199769     1.51500
O887        O  0.47809469  0.76404788  0.73313091    -1.43400
C888        C  0.41590204  0.70713630  0.78504500     1.08100
C889        C  0.05969285  0.68432676  0.67543875     1.08200
C890        C  0.02780688  0.70101828  0.83271341     1.08200
C891        C  0.41450346  0.69754359  0.67795204     1.08100
O892        O  0.29371408  0.96861664  0.82416552    -0.81500
O893        O  0.25423646  0.50584874  0.66238802    -0.81500
O894        O  0.27588782  0.90841158  0.70712775    -0.81500
O895        O  0.27328767  0.59205641  0.76372355    -0.81400
O896        O  0.27059952  0.95734700  0.66203100    -0.81600
O897        O  0.30158137  0.54487896  0.80220166    -0.81500
O898        O  0.28000080  0.55737836  0.69393519    -0.81500
O899        O  0.30210852  0.91776394  0.78116027    -0.81500
C900        C  0.31224933  0.93433660  0.81343147     1.08200
C901        C  0.28002737  0.53573847  0.66294247     1.08100
C902        C  0.28663340  0.92408856  0.67482147     1.08200
C903        C  0.30131640  0.58062901  0.78759325     1.08100
O904        O  0.22748284  0.55243537  0.84096253    -0.81500
O905        O  0.19216109  0.94313504  0.67347332    -0.81600
O906        O  0.21631397  0.92921960  0.80772182    -0.81500
O907        O  0.20171524  0.59536206  0.70523837    -0.81500
O908        O  0.18118313  0.53860487  0.67271058    -0.81500
O909        O  0.20412467  0.99568700  0.80595992    -0.81500
O910        O  0.19376363  0.56582597  0.78459202    -0.81400
O911        O  0.18882289  0.92576449  0.73451370    -0.81500
Co912      Co  0.24910998  0.51539184  0.80304369     1.51500
Co913      Co  0.22727218  0.99005116  0.68742456     1.51700
Co914      Co  0.24601124  0.92430979  0.75608246     1.51600
Co915      Co  0.23506981  0.55343866  0.73652497     1.51500
O916        O  0.25494565  0.98582581  0.74190000    -1.43400
C917        C  0.19885039  0.57215073  0.82224452     1.08100
C918        C  0.17842544  0.92036346  0.69970577     1.08200
C919        C  0.19315234  0.96027209  0.81621975     1.08200
C920        C  0.17970380  0.57886073  0.67737236     1.08100
C921        C  0.35341343  0.67893953  0.81466890    -0.10500
C922        C  0.39234268  0.67133802  0.79674048     0.05700
C923        C  0.40429707  0.63049899  0.78441483    -0.04300
C924        C  0.37457113  0.59933675  0.78533001    -0.08700
C925        C  0.33381483  0.60899071  0.79789503     0.04800
C926        C  0.32380174  0.64786991  0.81500226    -0.03700
Br927      Br  0.26970609  0.66099052  0.83656947    -0.03400
H928        H  0.34484680  0.70995913  0.82553654     0.08700
H929        H  0.38204744  0.56876664  0.77277705     0.06700
Br930      Br  0.45728265  0.61614921  0.76021663    -0.03900
C931        C  0.16573158  0.84638973  0.69368261    -0.10500
C932        C  0.14997534  0.88726397  0.69100297     0.05700
C933        C  0.10679978  0.89535538  0.68796286    -0.04300
C934        C  0.07922829  0.86223988  0.69084469    -0.06500
C935        C  0.09482870  0.82156128  0.69703825     0.04800
C936        C  0.13829575  0.81319835  0.69613055    -0.03700
Br937      Br  0.16157899  0.75752838  0.69760584    -0.03400
H938        H  0.19937373  0.84055586  0.69557981     0.08700
H939        H  0.04561707  0.86857380  0.69045500     0.06700
Br940      Br  0.08469850  0.95122768  0.68368381    -0.03900
C941        C  0.31949887  0.88683058  0.58030380    -0.10500
C942        C  0.30787321  0.84574734  0.58731556     0.05700
C943        C  0.31367542  0.82989032  0.62472824    -0.04300
C944        C  0.31746479  0.85714555  0.65591038    -0.08700
C945        C  0.31461061  0.89981518  0.64916283     0.04800
C946        C  0.32376470  0.91398528  0.61165350    -0.03700
Br947      Br  0.33678111  0.97003464  0.60132012    -0.03400
H948        H  0.31955641  0.89923863  0.55118062     0.08700
H949        H  0.31556745  0.84505248  0.68511191     0.06700
Br950      Br  0.31456465  0.77286876  0.63593552    -0.03900
C951        C  0.15899839  0.67569055  0.86154918    -0.10500
C952        C  0.16095618  0.66682782  0.90154718     0.05700
C953        C  0.15740431  0.62479844  0.91241946    -0.04300
C954        C  0.16395126  0.59286031  0.88454720    -0.08700
C955        C  0.17192422  0.60217598  0.84533714     0.04800
C956        C  0.16476516  0.64374236  0.83334671    -0.03700
Br957      Br  0.17115809  0.66023389  0.78026038    -0.03400
H958        H  0.16018429  0.70794575  0.85236660     0.08700
H959        H  0.16699125  0.56088019  0.89424145     0.06700
Br960      Br  0.15124315  0.60934993  0.96566819    -0.03900
C961        C  0.12631025  0.81869034  0.88699070    -0.10500
C962        C  0.16709174  0.81403999  0.87152068     0.05700
C963        C  0.17184180  0.80918787  0.83083062    -0.04300
C964        C  0.13619962  0.80409818  0.80744292    -0.08700
C965        C  0.09540825  0.80533852  0.82346734     0.04800
C966        C  0.09074701  0.81498319  0.86361218    -0.03700
Br967      Br  0.03739092  0.81858402  0.89027359    -0.03400
H968        H  0.12176594  0.82232851  0.91808384     0.08700
H969        H  0.14051533  0.79769479  0.77674922     0.06700
Br970      Br  0.22583619  0.80907390  0.80537972    -0.03900
C971        C  0.36083848  0.67563618  0.58131495    -0.10500
C972        C  0.31811383  0.67851298  0.59301911     0.05700
C973        C  0.31012170  0.67500790  0.63360947    -0.04300
C974        C  0.34332512  0.67235258  0.66052303    -0.08700
C975        C  0.38567593  0.67574205  0.64930651     0.04800
C976        C  0.39420493  0.67404810  0.60877571    -0.03700
Br977      Br  0.45088626  0.67349244  0.58933362    -0.03400
H978        H  0.36857200  0.67802568  0.55074250     0.08700
H979        H  0.33565602  0.67424596  0.69124851     0.06700
Br980      Br  0.25682333  0.68791987  0.65715355    -0.03900
C981        C  0.36085650  0.63792485  0.92006705    -0.10500
C982        C  0.32186177  0.62989963  0.93749568     0.05700
C983        C  0.31356810  0.58952493  0.95132068    -0.04300
C984        C  0.34645413  0.56085198  0.95369236    -0.08700
C985        C  0.38709999  0.57158138  0.94215897     0.04800
C986        C  0.39357060  0.60902251  0.92210779    -0.03700
Br987      Br  0.44599550  0.62484804  0.89932817    -0.03400
H988        H  0.36692734  0.66785386  0.90693705     0.08700
H989        H  0.34054097  0.53049067  0.96603153     0.06700
Br990      Br  0.25957222  0.57108056  0.96885836    -0.03900
C991        C  0.15338518  0.88307873  0.58317094    -0.10500
C992        C  0.13688530  0.84709075  0.56495178     0.05700
C993        C  0.09309987  0.84502156  0.56057100    -0.04300
C994        C  0.06794999  0.88065164  0.56938326    -0.08700
C995        C  0.08548994  0.91931563  0.58127139     0.04800
C996        C  0.12899004  0.91944322  0.58880697    -0.03700
Br997      Br  0.15937674  0.97051560  0.59367179    -0.03400
H998        H  0.18720650  0.88541762  0.58691875     0.08700
H999        H  0.03543608  0.87973440  0.56022578     0.06700
Br1000     Br  0.06725118  0.79746311  0.53647950    -0.03900
C1001       C  0.08346051  0.98667598  0.85129062    -0.10500
C1002       C  0.08336696  0.96891846  0.88824645     0.05700
C1003       C  0.11716276  0.94131136  0.89820231    -0.04300
C1004       C  0.15158139  0.93574930  0.87285630    -0.08700
C1005       C  0.15309924  0.95700366  0.83772081     0.04800
C1006       C  0.11772573  0.98080497  0.82614077    -0.03700
Br1007     Br  0.11498376  0.00675792  0.77625534    -0.03400
H1008       H  0.05756568  0.00667501  0.84238335     0.08700
H1009       H  0.17836570  0.91690391  0.88174600     0.06700
Br1010     Br  0.12072371  0.91188403  0.94651881    -0.03900
C1011       C  0.33404371  0.52854452  0.56335204    -0.10500
C1012       C  0.37563236  0.53947323  0.57225536     0.05700
C1013       C  0.38359299  0.55526906  0.61031067    -0.04300
C1014       C  0.35124108  0.55697338  0.63854743    -0.08700
C1015       C  0.31070358  0.54230080  0.63036592     0.04800
C1016       C  0.30182331  0.53025809  0.59157240    -0.03700
Br1017     Br  0.24672636  0.51399359  0.57551908    -0.03400
H1018       H  0.32690146  0.51580478  0.53476853     0.08700
H1019       H  0.35883005  0.56671520  0.66798867     0.06700
Br1020     Br  0.43912398  0.56812134  0.62812126    -0.03900
C1021       C  0.44446701  0.85644878  0.55971417    -0.10500
C1022       C  0.45806210  0.89505962  0.57408509     0.05700
C1023       C  0.46509590  0.90123127  0.61440925    -0.04300
C1024       C  0.45828540  0.86907311  0.63910289    -0.08700
C1025       C  0.44377695  0.83095346  0.62526465     0.04800
C1026       C  0.43661074  0.82422793  0.58538127    -0.03700
Br1027     Br  0.41211764  0.77426397  0.56512171    -0.03400
H1028       H  0.43760506  0.85222831  0.52911057     0.08700
H1029       H  0.46464830  0.87404005  0.66976047     0.06700
Br1030     Br  0.97855272  0.96343217  0.65119286    -0.03900
C1031       C  0.56029370  0.58971196  0.85342017    -0.10500
C1032       C  0.04979851  0.60893634  0.91915995     0.05700
C1033       C  0.04178569  0.65070677  0.92993952    -0.04300
C1034       C  0.03974439  0.68121144  0.90135001    -0.08700
C1035       C  0.04363491  0.67040883  0.86150394     0.04800
C1036       C  0.56022251  0.62159794  0.82621057    -0.03700
Br1037     Br  0.57115135  0.60517628  0.77309513    -0.03400
H1038       H  0.56465490  0.55751357  0.84371147     0.08700
H1039       H  0.03159752  0.71296355  0.91028213     0.06700
Br1040     Br  0.02962952  0.66650568  0.98287263    -0.03900
C1041       C  0.83644182  0.41458040  0.35338466     0.85200
C1042       C  0.81172953  0.38535689  0.38001118    -0.55100
C1043       C  0.83515720  0.35881863  0.40285762     0.08100
C1044       C  0.88457231  0.36401706  0.39466234     0.19000
C1045       C  0.86589682  0.43781238  0.38092989    -0.55800
C1046       C  0.89122878  0.41330413  0.40353572     0.08200
C1047       C  0.86581657  0.38437437  0.32905751    -0.55300
C1048       C  0.89160653  0.35654962  0.34819685     0.08700
H1049       H  0.77754372  0.38647072  0.38131755     0.13300
H1050       H  0.90456758  0.34339574  0.41274652    -0.01000
H1051       H  0.86629455  0.47177544  0.38273667     0.13600
H1052       H  0.86516665  0.38446278  0.29755009     0.13400
C1053       C  0.64458447  0.08836779  0.14693321     0.85200
C1054       C  0.61337572  0.11744336  0.16898344    -0.55100
C1055       C  0.59022262  0.14522701  0.14729986     0.08100
C1056       C  0.60137452  0.13974865  0.10206788     0.19000
C1057       C  0.61795457  0.06601469  0.11604059    -0.55800
C1058       C  0.59531536  0.09065603  0.09119280     0.08200
C1059       C  0.67199337  0.11862441  0.12295677    -0.55300
C1060       C  0.65106373  0.14730932  0.10013046     0.08700
H1061       H  0.61062434  0.11642206  0.20039392     0.13300
H1062       H  0.58312117  0.16117618  0.08325878    -0.01000
H1063       H  0.61700377  0.03221392  0.11408271     0.13600
H1064       H  0.70594550  0.11619110  0.12341417     0.13400
O1065       O  0.53522542  0.48964254  0.40462883    -0.81500
O1066       O  0.96050025  0.47215055  0.06963813    -0.81500
O1067       O  0.56258154  0.44684533  0.52081004    -0.81500
O1068       O  0.90594628  0.45934674  0.46162021    -0.81400
O1069       O  0.53462348  0.45950651  0.03804659    -0.81600
O1070       O  0.95984850  0.43803655  0.42617952    -0.81500
O1071       O  0.96461749  0.42866098  0.01990590    -0.81500
O1072       O  0.55873182  0.44969929  0.44913520    -0.81500
C1073       C  0.55895687  0.45982288  0.41456681     1.08200
C1074       C  0.96292925  0.43555888  0.05622815     1.08100
C1075       C  0.57363838  0.45669449  0.03832826     1.08200
C1076       C  0.92017392  0.43611651  0.43270146     1.08100
O1077       O  0.95958488  0.04940873  0.43426090    -0.81500
O1078       O  0.52890678  0.07042749  0.05906737    -0.81600
O1079       O  0.55943982  0.05223120  0.45622529    -0.81500
O1080       O  0.90618620  0.50086120  0.02948600    -0.81500
O1081       O  0.94520507  0.55454251  0.04749889    -0.81500
O1082       O  0.00240521  0.04707275  0.42996642    -0.81500
O1083       O  0.91468710  0.01889822  0.46859582    -0.81400
O1084       O  0.58515187  0.03823591  0.03762781    -0.81500
Co1085     Co  0.97967070  0.99390210  0.45377758     1.51500
Co1086     Co  0.50191615  0.51044992  0.04767675     1.51700
Co1087     Co  0.56936464  0.01868652  0.50244751     1.51600
Co1088     Co  0.94497621  0.47519860  0.98776329     1.51500
O1089       O  0.00846351  0.51556271  0.51061302    -1.43400
C1090       C  0.92278222  0.04907277  0.44741510     1.08100
C1091       C  0.56865193  0.06732025  0.05943792     1.08200
C1092       C  0.53266874  0.05504211  0.42927615     1.08200
C1093       C  0.90929298  0.03992253  0.05173222     1.08100
O1094       O  0.81585289  0.29266547  0.43494280    -0.81500
O1095       O  0.77007639  0.23189032  0.07063450    -0.81500
O1096       O  0.77901916  0.33086442  0.03018480    -0.81500
O1097       O  0.76682559  0.16747824  0.48669950    -0.81400
O1098       O  0.73617619  0.29842237  0.07202002    -0.81600
O1099       O  0.79872220  0.21015883  0.44717287    -0.81500
O1100       O  0.77992071  0.18084077  0.03253994    -0.81500
O1101       O  0.77880573  0.34876896  0.45075325    -0.81500
C1102       C  0.81079304  0.33211294  0.43280689     1.08200
C1103       C  0.79115247  0.19947791  0.06359081     1.08100
C1104       C  0.76779129  0.32200731  0.06475081     1.08200
C1105       C  0.79565397  0.17512023  0.46304014     1.08100
O1106       O  0.70733731  0.23128199  0.43103968    -0.81500
O1107       O  0.66356272  0.27233496  0.02217113    -0.81600
O1108       O  0.68646212  0.32648565  0.44930820    -0.81500
O1109       O  0.69525935  0.16537713  0.04359252    -0.81500
O1110       O  0.68276876  0.21777704  0.08293031    -0.81500
O1111       O  0.73277530  0.30482998  0.40813360    -0.81500
O1112       O  0.69725640  0.17850519  0.46847886    -0.81400
O1113       O  0.68440302  0.33795327  0.52766269    -0.81500
Co1114     Co  0.76229188  0.25899939  0.43582122     1.51500
Co1115     Co  0.71816750  0.24810412  0.04054531     1.51700
Co1116     Co  0.73141567  0.33327018  0.49029618     1.51600
Co1117     Co  0.72525676  0.21071656  0.01366088     1.51500
O1118       O  0.74382638  0.26969383  0.49438633    -1.43400
C1119       C  0.69758834  0.19394561  0.43545882     1.08100
C1120       C  0.66130018  0.31105603  0.03002351     1.08200
C1121       C  0.69546924  0.31552913  0.41482617     1.08200
C1122       C  0.67637881  0.17852662  0.07449400     1.08100
O1123       O  0.52577736  0.29159679  0.30882995    -0.81500
O1124       O  0.96141526  0.27373189  0.15923534    -0.81500
O1125       O  0.57464691  0.25718089  0.23344531    -0.81500
O1126       O  0.91972775  0.32938973  0.28450692    -0.81400
O1127       O  0.53985819  0.28243484  0.18567269    -0.81600
O1128       O  0.94005901  0.29194615  0.33398017    -0.81500
O1129       O  0.93291146  0.32060040  0.20158613    -0.81500
O1130       O  0.56999207  0.25265340  0.27376423    -0.81500
C1131       C  0.56315414  0.28036725  0.30184078     1.08200
C1132       C  0.94582896  0.30960787  0.16769153     1.08100
C1133       C  0.57191236  0.28315546  0.20609070     1.08200
C1134       C  0.91917874  0.32421209  0.32164770     1.08100
O1135       O  0.94997654  0.20679802  0.29488425    -0.81500
O1136       O  0.53391248  0.20214450  0.15319934    -0.81600
O1137       O  0.53706445  0.18668085  0.28911566    -0.81500
O1138       O  0.89899657  0.24072958  0.20103723    -0.81500
O1139       O  0.95132237  0.19544357  0.19127905    -0.81500
O1140       O  0.00946509  0.22838946  0.34530003    -0.81500
O1141       O  0.89489621  0.24472197  0.28219995    -0.81400
O1142       O  0.56394055  0.17940132  0.20743760    -0.81500
Co1143     Co  0.98541796  0.25584000  0.30136619     1.51500
Co1144     Co  0.49905216  0.23812994  0.19216454     1.51700
Co1145     Co  0.52577230  0.21953648  0.23818977     1.51600
Co1146     Co  0.91550006  0.28283401  0.24253931     1.51500
O1147       O  0.97751279  0.26572644  0.24533372    -1.43400
C1148       C  0.91179181  0.20931251  0.28702723     1.08100
C1149       C  0.56123536  0.17734361  0.16962740     1.08200
C1150       C  0.53006315  0.18952974  0.32632153     1.08200
C1151       C  0.91367963  0.20765531  0.18439599     1.08100
O1152       O  0.77749064  0.46733573  0.33887341    -0.81500
O1153       O  0.76932951  0.00887950  0.15666793    -0.81500
O1154       O  0.80604254  0.43653060  0.21351817    -0.81500
O1155       O  0.77206091  0.07855995  0.24753061    -0.81400
O1156       O  0.75614737  0.44899948  0.17013645    -0.81600
O1157       O  0.81240310  0.03317712  0.27614985    -0.81500
O1158       O  0.76313200  0.06607092  0.19178174    -0.81500
O1159       O  0.81523542  0.44248236  0.29126512    -0.81500
C1160       C  0.80853298  0.44378497  0.32723826     1.08200
C1161       C  0.77861453  0.04617557  0.16230194     1.08100
C1162       C  0.79168387  0.43308477  0.17960922     1.08200
C1163       C  0.80662624  0.06928908  0.26192831     1.08100
O1164       O  0.75671820  0.04430763  0.33465674    -0.81500
O1165       O  0.67602978  0.45391339  0.20661627    -0.81600
O1166       O  0.72579870  0.41990866  0.30200913    -0.81500
O1167       O  0.67638426  0.06601443  0.20971367    -0.81500
O1168       O  0.68845225  0.02496228  0.15999830    -0.81500
O1169       O  0.69371999  0.48047854  0.30116987    -0.81500
O1170       O  0.71053804  0.06809297  0.29037575    -0.81400
O1171       O  0.72247180  0.40662803  0.22379725    -0.81500
Co1172     Co  0.75862533  0.00703870  0.29282897     1.51500
Co1173     Co  0.72255690  0.49119410  0.20071432     1.51700
Co1174     Co  0.76716569  0.43093194  0.25728118     1.51600
Co1175     Co  0.72758567  0.04242881  0.23712815     1.51500
O1176       O  0.75698647  0.49398737  0.25061290    -1.43400
C1177       C  0.72802641  0.06968790  0.32432722     1.08100
C1178       C  0.68619781  0.41643664  0.21155264     1.08200
C1179       C  0.69346595  0.44269459  0.30969444     1.08200
C1180       C  0.67045893  0.05787730  0.17386091     1.08100
C1181       C  0.84527974  0.17836435  0.27038888    -0.10500
C1182       C  0.88704521  0.17173278  0.28077889     0.05700
C1183       C  0.90379943  0.13038479  0.28119927    -0.04300
C1184       C  0.87767442  0.09668152  0.27359063    -0.08700
C1185       C  0.83561345  0.10377532  0.26444491     0.04800
C1186       C  0.81959980  0.14557886  0.26166427    -0.03700
Br1187     Br  0.76178993  0.16325604  0.25233777    -0.03400
H1188       H  0.83181276  0.20966669  0.26920037     0.08700
H1189       H  0.89004076  0.06498729  0.27529141     0.06700
Br1190     Br  0.96127545  0.11647639  0.29104293    -0.03900
C1191       C  0.67212448  0.34132604  0.20905874    -0.10500
C1192       C  0.65730690  0.38241845  0.20268606     0.05700
C1193       C  0.61536663  0.38893980  0.19039579    -0.04300
C1194       C  0.58820626  0.35532404  0.19018010    -0.06500
C1195       C  0.60253410  0.31543785  0.20064873     0.04800
C1196       C  0.64516188  0.30782340  0.20752385    -0.03700
Br1197     Br  0.66813176  0.25233704  0.21358035    -0.03400
H1198       H  0.70463611  0.33497969  0.21636760     0.08700
H1199       H  0.55537913  0.36069398  0.18319716     0.06700
Br1200     Br  0.59185932  0.44157803  0.17397963    -0.03900
C1201       C  0.81295463  0.37903990  0.08845292    -0.10500
C1202       C  0.78892536  0.34353331  0.09672565     0.05700
C1203       C  0.78200193  0.33282488  0.13580167    -0.04300
C1204       C  0.79273685  0.36070293  0.16496062    -0.08700
C1205       C  0.80835419  0.39967527  0.15553983     0.04800
C1206       C  0.82276219  0.40708842  0.11810189    -0.03700
Br1207     Br  0.85667826  0.45396284  0.10768377    -0.03400
H1208       H  0.82155602  0.38668504  0.05889983     0.08700
H1209       H  0.78303003  0.35440557  0.19457387     0.06700
Br1210     Br  0.75420173  0.28388805  0.15246122    -0.03900
C1211       C  0.73252501  0.16913811  0.37868708    -0.10500
C1212       C  0.69671006  0.16677297  0.40211944     0.05700
C1213       C  0.67086099  0.13150196  0.40022604    -0.04300
C1214       C  0.67857481  0.10139676  0.37138004    -0.08700
C1215       C  0.71639176  0.10278786  0.35057092     0.04800
C1216       C  0.74519415  0.13460838  0.35748437    -0.03700
Br1217     Br  0.80466137  0.12661144  0.35152443    -0.03400
H1218       H  0.75502949  0.19397312  0.38298501     0.08700
H1219       H  0.65821981  0.07458903  0.36855080     0.06700
Br1220     Br  0.63252393  0.11865913  0.44114129    -0.03900
C1221       C  0.62153711  0.32523873  0.39034484    -0.10500
C1222       C  0.66318451  0.31203296  0.38306798     0.05700
C1223       C  0.67212425  0.29255728  0.34634356    -0.04300
C1224       C  0.63956655  0.28434854  0.31992025    -0.08700
C1225       C  0.59773443  0.29648366  0.32763394     0.04800
C1226       C  0.58942924  0.31907920  0.36297699    -0.03700
Br1227     Br  0.53507125  0.34184173  0.37758421    -0.03400
H1228       H  0.61354805  0.34016085  0.41791463     0.08700
H1229       H  0.64700622  0.26703888  0.29352443     0.06700
Br1230     Br  0.72736227  0.27391018  0.32985188    -0.03900
C1231       C  0.86736786  0.18234822  0.08383495    -0.10500
C1232       C  0.82399437  0.18545641  0.09262575     0.05700
C1233       C  0.81257028  0.18369772  0.13232300    -0.04300
C1234       C  0.84278252  0.18612443  0.16179504    -0.08700
C1235       C  0.88596648  0.18795969  0.15358125     0.04800
C1236       C  0.89815944  0.18251141  0.11389473    -0.03700
Br1237     Br  0.95616698  0.17879763  0.09863064    -0.03400
H1238       H  0.87752747  0.18252987  0.05376659     0.08700
H1239       H  0.83204773  0.18940033  0.19148646     0.06700
Br1240     Br  0.75536535  0.17924641  0.14857440    -0.03900
C1241       C  0.86598499  0.15308076  0.43819003    -0.10500
C1242       C  0.82673666  0.14227878  0.45379418     0.05700
C1243       C  0.81761568  0.09984931  0.45957217    -0.04300
C1244       C  0.84893449  0.06995447  0.45362041    -0.08700
C1245       C  0.88964377  0.08097437  0.44181053     0.04800
C1246       C  0.89711864  0.12259106  0.43144069    -0.03700
Br1247     Br  0.94747614  0.14003693  0.40708599    -0.03400
H1248       H  0.87273032  0.18536770  0.43164618     0.08700
H1249       H  0.84155919  0.03771732  0.45976731     0.06700
Br1250     Br  0.76326730  0.07953082  0.47477593    -0.03900
C1251       C  0.63805227  0.36540088  0.07438296    -0.10500
C1252       C  0.62549731  0.33357124  0.04805726     0.05700
C1253       C  0.58931943  0.34032387  0.02597609    -0.04300
C1254       C  0.57185306  0.38067457  0.02453610    -0.08700
C1255       C  0.59138207  0.41460965  0.04370776     0.04800
C1256       C  0.62458124  0.40663583  0.06919625    -0.03700
Br1257     Br  0.65638359  0.45064308  0.09303781    -0.03400
H1258       H  0.66551728  0.36022653  0.09235023     0.08700
H1259       H  0.54485920  0.38606005  0.00610145     0.06700
Br1260     Br  0.56653322  0.29671351  0.99404377    -0.03900
C1261       C  0.58330593  0.44610934  0.34760092    -0.10500
C1262       C  0.59058416  0.44147394  0.38719918     0.05700
C1263       C  0.63073556  0.42657302  0.39928986    -0.04300
C1264       C  0.66294735  0.41937529  0.37167843    -0.08700
C1265       C  0.65676532  0.42923347  0.33257433     0.04800
C1266       C  0.61600569  0.44169628  0.32077793    -0.03700
Br1267     Br  0.60444055  0.46266075  0.27042304    -0.03400
H1268       H  0.55301544  0.45777040  0.33779387     0.08700
H1269       H  0.69433573  0.41139527  0.38163008     0.06700
Br1270     Br  0.64635735  0.42179281  0.45299131    -0.03900
C1271       C  0.83293622  0.05202513  0.06642815    -0.10500
C1272       C  0.87488247  0.05553599  0.07826349     0.05700
C1273       C  0.88277454  0.06758696  0.11748146    -0.04300
C1274       C  0.84934788  0.07159689  0.14440646    -0.08700
C1275       C  0.80789228  0.06348247  0.13324955     0.04800
C1276       C  0.79975708  0.05565283  0.09340571    -0.03700
Br1277     Br  0.74430527  0.04191858  0.07567589    -0.03400
H1278       H  0.82613335  0.04278728  0.03672749     0.08700
H1279       H  0.85639456  0.07628084  0.17493599     0.06700
Br1280     Br  0.93859602  0.07223194  0.13805788    -0.03900
C1281       C  0.94538695  0.36350366  0.07208302    -0.10500
C1282       C  0.96011992  0.40251154  0.08417788     0.05700
C1283       C  0.96853479  0.41063572  0.12401331    -0.04300
C1284       C  0.96197197  0.37976223  0.15046523    -0.08700
C1285       C  0.94729717  0.34099453  0.13844700     0.04800
C1286       C  0.93873348  0.33260298  0.09910576    -0.03700
Br1287     Br  0.91510724  0.28140484  0.08089513    -0.03400
H1288       H  0.93791266  0.35744286  0.04185172     0.08700
H1289       H  0.96938789  0.38584918  0.18075062     0.06700
Br1290     Br  0.45955866  0.47350692  0.17253829    -0.03900
C1291       C  0.05608935  0.09148197  0.37204778    -0.10500
C1292       C  0.53850988  0.08951228  0.40302707     0.05700
C1293       C  0.53509327  0.13063553  0.41773014    -0.04300
C1294       C  0.53889929  0.16384695  0.39259102    -0.08700
C1295       C  0.54510030  0.15659661  0.35261563     0.04800
C1296       C  0.05694892  0.12363510  0.34555417    -0.03700
Br1297     Br  0.07184202  0.10791816  0.29284497    -0.03400
H1298       H  0.06018333  0.05939385  0.36192765     0.08700
H1299       H  0.53284097  0.19517828  0.40391172     0.06700
Br1300     Br  0.52079779  0.14295201  0.47114629    -0.03900
C1301       C  0.83440904  0.41561448  0.85242084     0.85200
C1302       C  0.81118653  0.38346730  0.87719194    -0.55100
C1303       C  0.83564695  0.35524211  0.89719923     0.08100
C1304       C  0.88458711  0.36293686  0.88922542     0.19000
C1305       C  0.86437083  0.43714875  0.88061458    -0.55800
C1306       C  0.89107077  0.41160511  0.90086074     0.08200
C1307       C  0.86358134  0.38836951  0.82537316    -0.55300
C1308       C  0.89024903  0.35976716  0.84255028     0.08700
H1309       H  0.77704034  0.38363194  0.87923803     0.13300
H1310       H  0.90544036  0.34122073  0.90531979    -0.01000
H1311       H  0.86333717  0.47085332  0.88531658     0.13600
H1312       H  0.86206387  0.39084205  0.79400002     0.13400
C1313       C  0.64416513  0.10272443  0.65436398     0.85200
C1314       C  0.61085672  0.13033483  0.67577404    -0.55100
C1315       C  0.58569272  0.15560793  0.65306246     0.08100
C1316       C  0.59791811  0.14989444  0.60811648     0.19000
C1317       C  0.61870608  0.07781087  0.62438696    -0.55800
C1318       C  0.59419639  0.10039947  0.59940287     0.08200
C1319       C  0.66946505  0.13352435  0.62948321    -0.55300
C1320       C  0.64718334  0.16041382  0.60609218     0.08700
H1321       H  0.60801301  0.13005992  0.70721853     0.13300
H1322       H  0.57834130  0.16943813  0.58868691    -0.01000
H1323       H  0.61961357  0.04380493  0.62328022     0.13600
H1324       H  0.70330416  0.13125377  0.62841755     0.13400
O1325       O  0.53858732  0.45030038  0.94812626    -0.81500
O1326       O  0.95462721  0.47240275  0.56703855    -0.81500
O1327       O  0.59555742  0.48888618  0.03264839    -0.81500
O1328       O  0.90007629  0.44093387  0.96649258    -0.81400
O1329       O  0.54808304  0.48269677  0.57331937    -0.81600
O1330       O  0.95217819  0.45242342  0.92604280    -0.81500
O1331       O  0.96588334  0.43581886  0.51603279    -0.81500
O1332       O  0.59265732  0.49177002  0.95268664    -0.81500
C1333       C  0.57646310  0.45878248  0.93968256     1.08200
C1334       C  0.96047983  0.43756430  0.55209140     1.08100
C1335       C  0.56058074  0.44844257  0.55669013     1.08200
C1336       C  0.91667644  0.43356277  0.93331073     1.08100
O1337       O  0.94110361  0.04008224  0.90584895    -0.81500
O1338       O  0.54162394  0.04745025  0.58620916    -0.81600
O1339       O  0.56310079  0.05425111  0.95929480    -0.81500
O1340       O  0.91147404  0.51826242  0.53470465    -0.81500
O1341       O  0.95750124  0.55797380  0.56678366    -0.81500
O1342       O  0.99375088  0.07712973  0.95877712    -0.81500
O1343       O  0.91394280  0.03014600  0.96427606    -0.81400
O1344       O  0.57244693  0.07318219  0.53460695    -0.81500
Co1345     Co  0.97511396  0.01986678  0.94756896     1.51500
Co1346     Co  0.49805521  0.51923827  0.55255290     1.51700
Co1347     Co  0.56249418  0.00204246  0.99075824     1.51600
Co1348     Co  0.95172261  0.49131150  0.49293400     1.51500
O1349       O  0.00013601  0.50353170  0.99847603    -1.43400
C1350       C  0.91201162  0.04679751  0.93064912     1.08100
C1351       C  0.56626292  0.07437016  0.57133944     1.08200
C1352       C  0.53417868  0.08094354  0.95214425     1.08200
C1353       C  0.91039486  0.03321679  0.55068618     1.08100
O1354       O  0.81229535  0.28564275  0.92157824    -0.81500
O1355       O  0.77671707  0.24027647  0.56764277    -0.81500
O1356       O  0.77208022  0.34002422  0.53289379    -0.81500
O1357       O  0.77431804  0.17420943  0.99449582    -0.81400
O1358       O  0.73322972  0.30621199  0.57614823    -0.81600
O1359       O  0.78640355  0.20262601  0.93642947    -0.81500
O1360       O  0.76870142  0.17876696  0.54609763    -0.81500
O1361       O  0.78467959  0.34308282  0.94821208    -0.81500
C1362       C  0.81209897  0.32573971  0.92531888     1.08200
C1363       C  0.78932874  0.20308514  0.56733011     1.08100
C1364       C  0.76363020  0.33027479  0.56786003     1.08200
C1365       C  0.79209154  0.17404029  0.96066261     1.08100
O1366       O  0.69882751  0.23324597  0.93455904    -0.81500
O1367       O  0.66109415  0.27455573  0.53421275    -0.81600
O1368       O  0.69084112  0.32801687  0.94924017    -0.81500
O1369       O  0.67789313  0.18402280  0.54391524    -0.81500
O1370       O  0.69074082  0.22492963  0.59300198    -0.81500
O1371       O  0.72988232  0.30408055  0.90352344    -0.81500
O1372       O  0.70514968  0.17798335  0.96887754    -0.81400
O1373       O  0.69302836  0.33319243  0.02535601    -0.81500
Co1374     Co  0.75625221  0.25571546  0.92939345     1.51500
Co1375     Co  0.71913611  0.25408021  0.54723516     1.51700
Co1376     Co  0.73840670  0.32895295  0.98801974     1.51600
Co1377     Co  0.72682257  0.20633568  0.50978687     1.51500
O1378       O  0.75084333  0.26560578  0.98941596    -1.43400
C1379       C  0.69378625  0.19486459  0.93805389     1.08100
C1380       C  0.65629445  0.31366838  0.53925062     1.08200
C1381       C  0.69547089  0.31963431  0.91374551     1.08200
C1382       C  0.67166591  0.19215758  0.58006073     1.08100
O1383       O  0.52077496  0.30604403  0.80848577    -0.81500
O1384       O  0.96077916  0.27368414  0.65449951    -0.81500
O1385       O  0.57392876  0.26455215  0.73153014    -0.81500
O1386       O  0.91725562  0.33409924  0.77810102    -0.81400
O1387       O  0.53114234  0.29139364  0.69017860    -0.81600
O1388       O  0.93836961  0.29740906  0.82773666    -0.81500
O1389       O  0.93159500  0.32207849  0.69499472    -0.81500
O1390       O  0.56832079  0.26058616  0.78898676    -0.81500
C1391       C  0.55889941  0.29370384  0.80821570     1.08200
C1392       C  0.94515917  0.30981254  0.66154789     1.08100
C1393       C  0.56554472  0.29264958  0.70763459     1.08200
C1394       C  0.91729166  0.32902015  0.81521803     1.08100
O1395       O  0.94815916  0.21224468  0.79184142    -0.81500
O1396       O  0.52904886  0.21141199  0.65488891    -0.81600
O1397       O  0.53050095  0.19424464  0.80195144    -0.81500
O1398       O  0.89894597  0.24260732  0.69779286    -0.81500
O1399       O  0.95179500  0.19732836  0.69012603    -0.81500
O1400       O  0.00394526  0.23893291  0.84391505    -0.81500
O1401       O  0.89286979  0.24929906  0.77792798    -0.81400
O1402       O  0.55076705  0.18666075  0.71132041    -0.81500
Co1403     Co  0.98374307  0.26143186  0.79706292     1.51500
Co1404     Co  0.49385379  0.24256494  0.69454940     1.51700
Co1405     Co  0.52881952  0.23085984  0.75317996     1.51600
Co1406     Co  0.91395811  0.28619281  0.73745556     1.51500
O1407       O  0.97605106  0.26952311  0.74121980    -1.43400
C1408       C  0.91012381  0.21414612  0.78306658     1.08100
C1409       C  0.55322246  0.18603014  0.67336302     1.08200
C1410       C  0.52384363  0.20369577  0.83831124     1.08200
C1411       C  0.91408508  0.20890299  0.68291961     1.08100
O1412       O  0.77531825  0.46957117  0.84652724    -0.81500
O1413       O  0.75371405  0.01336266  0.65364280    -0.81500
O1414       O  0.79825259  0.45157978  0.71257338    -0.81500
O1415       O  0.77969225  0.07269277  0.73212023    -0.81400
O1416       O  0.74641948  0.45901828  0.67017748    -0.81600
O1417       O  0.81378503  0.04149301  0.78047619    -0.81500
O1418       O  0.77126159  0.06242717  0.69428554    -0.81500
O1419       O  0.80838573  0.44945218  0.79340553    -0.81500
C1420       C  0.80440007  0.44649571  0.83034725     1.08200
C1421       C  0.77532649  0.04489207  0.66045853     1.08100
C1422       C  0.78314415  0.44496402  0.67928485     1.08200
C1423       C  0.81046041  0.07074372  0.75613553     1.08100
O1424       O  0.75748998  0.05464330  0.83674965    -0.81500
O1425       O  0.66872014  0.46983860  0.71936879    -0.81600
O1426       O  0.72016763  0.42419570  0.80096739    -0.81500
O1427       O  0.69216482  0.08966025  0.71023197    -0.81500
O1428       O  0.67798896  0.03506322  0.67429001    -0.81500
O1429       O  0.69315541  0.48492412  0.80963450    -0.81500
O1430       O  0.72015592  0.07708960  0.78551989    -0.81400
O1431       O  0.71569861  0.41973899  0.72215900    -0.81500
Co1432     Co  0.76050497  0.01684522  0.79571093     1.51500
Co1433     Co  0.71393796  0.50569382  0.69793832     1.51700
Co1434     Co  0.75985096  0.44219206  0.75619855     1.51600
Co1435     Co  0.72491201  0.04283508  0.73305763     1.51500
O1436       O  0.74460473  0.50704235  0.74749120    -1.43400
C1437       C  0.73204952  0.08028904  0.82156153     1.08100
C1438       C  0.67780304  0.43108926  0.71889588     1.08200
C1439       C  0.69088365  0.44698273  0.81553524     1.08200
C1440       C  0.67246442  0.07460657  0.68131420     1.08100
C1441       C  0.84428997  0.18101520  0.76550482    -0.10500
C1442       C  0.88655135  0.17599233  0.77544741     0.05700
C1443       C  0.90531442  0.13548504  0.77368191    -0.04300
C1444       C  0.88039388  0.10089260  0.76618198    -0.08700
C1445       C  0.83793456  0.10634138  0.75765526     0.04800
C1446       C  0.82015008  0.14698998  0.75558492    -0.03700
Br1447     Br  0.76146041  0.15951129  0.74605121    -0.03400
H1448       H  0.82938021  0.21169072  0.76553494     0.08700
H1449       H  0.89416731  0.06969462  0.76677581     0.06700
Br1450     Br  0.96433430  0.12406869  0.77838051    -0.03900
C1451       C  0.66315850  0.35561397  0.71357162    -0.10500
C1452       C  0.64716976  0.39708313  0.71214944     0.05700
C1453       C  0.60419172  0.40331311  0.70343465    -0.04300
C1454       C  0.57801426  0.36854102  0.69934051    -0.06500
C1455       C  0.59424249  0.32763940  0.70318380     0.04800
C1456       C  0.63744444  0.32133314  0.70867423    -0.03700
Br1457     Br  0.66295561  0.26628811  0.71055646    -0.03400
H1458       H  0.69611314  0.34921175  0.71907045     0.08700
H1459       H  0.54463390  0.37355178  0.69471013     0.06700
Br1460     Br  0.57931460  0.45764041  0.69640752    -0.03900
C1461       C  0.81111888  0.38560907  0.59112228    -0.10500
C1462       C  0.78635624  0.35083013  0.59959642     0.05700
C1463       C  0.77835982  0.34139481  0.63890081    -0.04300
C1464       C  0.78633081  0.37117639  0.66735229    -0.08700
C1465       C  0.80081948  0.41027704  0.65679001     0.04800
C1466       C  0.81821927  0.41561293  0.61991610    -0.03700
Br1467     Br  0.85096253  0.46296096  0.60817170    -0.03400
H1468       H  0.82121130  0.39176385  0.56166459     0.08700
H1469       H  0.77535705  0.36600782  0.69676585     0.06700
Br1470     Br  0.75148160  0.29222393  0.65629606    -0.03900
C1471       C  0.71295098  0.18201603  0.87185268    -0.10500
C1472       C  0.68843390  0.16947138  0.90335020     0.05700
C1473       C  0.67350095  0.12823097  0.90470735    -0.04300
C1474       C  0.68347953  0.10067849  0.87410253    -0.08700
C1475       C  0.71358305  0.11222191  0.84642557     0.04800
C1476       C  0.73153321  0.15167391  0.84861045    -0.03700
Br1477     Br  0.79064118  0.15816206  0.84195735    -0.03400
H1478       H  0.72739181  0.21257482  0.87211316     0.08700
H1479       H  0.67218706  0.06882591  0.87465989     0.06700
Br1480     Br  0.64705326  0.10630072  0.95016833    -0.03900
C1481       C  0.61866031  0.32800454  0.89794257    -0.10500
C1482       C  0.66056055  0.32358762  0.88481072     0.05700
C1483       C  0.66756720  0.31797840  0.84426177    -0.04300
C1484       C  0.63348670  0.31214194  0.81923102    -0.08700
C1485       C  0.59182901  0.31296621  0.83294626     0.04800
C1486       C  0.58450619  0.32304322  0.87252161    -0.03700
Br1487     Br  0.52883484  0.32560632  0.89447987    -0.03400
H1488       H  0.61234727  0.33344527  0.92854813     0.08700
H1489       H  0.63974972  0.30486810  0.78890847     0.06700
Br1490     Br  0.72251072  0.31700563  0.82040400    -0.03900
C1491       C  0.86580658  0.18587724  0.58454595    -0.10500
C1492       C  0.82286317  0.18922806  0.59492660     0.05700
C1493       C  0.81255296  0.18667068  0.63444771    -0.04300
C1494       C  0.84368743  0.18673645  0.66264369    -0.08700
C1495       C  0.88650319  0.18799867  0.65342998     0.04800
C1496       C  0.89758191  0.18432010  0.61345992    -0.03700
Br1497     Br  0.95525287  0.18135661  0.59693903    -0.03400
H1498       H  0.87488063  0.18701685  0.55404680     0.08700
H1499       H  0.83343882  0.19116409  0.69334794     0.06700
Br1500     Br  0.75593937  0.18811746  0.65202488    -0.03900
C1501       C  0.85666753  0.14944842  0.92681753    -0.10500
C1502       C  0.82052672  0.13987999  0.94850424     0.05700
C1503       C  0.81046827  0.09786436  0.95457757    -0.04300
C1504       C  0.83881617  0.06653888  0.94284378    -0.08700
C1505       C  0.87724006  0.07642662  0.92501680     0.04800
C1506       C  0.88483672  0.11799475  0.91469185    -0.03700
Br1507     Br  0.93433484  0.13417514  0.88718445    -0.03400
H1508       H  0.86362875  0.18167335  0.92019330     0.08700
H1509       H  0.83228095  0.03442706  0.95029742     0.06700
Br1510     Br  0.75848793  0.08131916  0.97785094    -0.03900
C1511       C  0.63587496  0.36609082  0.58867208    -0.10500
C1512       C  0.62255716  0.33395599  0.56330014     0.05700
C1513       C  0.58065856  0.33478793  0.55125093    -0.04300
C1514       C  0.55619667  0.37120117  0.55782426    -0.08700
C1515       C  0.57314451  0.40796242  0.57516904     0.04800
C1516       C  0.61261147  0.40348713  0.59298958    -0.03700
Br1517     Br  0.64260705  0.45001071  0.61239840    -0.03400
H1518       H  0.66803060  0.36552014  0.59901147     0.08700
H1519       H  0.52700452  0.37270897  0.54254648     0.06700
Br1520     Br  0.55831738  0.29077707  0.51937156    -0.03900
C1521       C  0.58673825  0.44256559  0.87031184    -0.10500
C1522       C  0.60084432  0.43672765  0.90833784     0.05700
C1523       C  0.64384952  0.42635362  0.91362711    -0.04300
C1524       C  0.67160561  0.42280525  0.88155109    -0.08700
C1525       C  0.65834972  0.43303572  0.84395040     0.04800
C1526       C  0.61528261  0.44353545  0.83901616    -0.03700
Br1527     Br  0.59517383  0.46920392  0.79298975    -0.03400
H1528       H  0.55467765  0.45340628  0.86575899     0.08700
H1529       H  0.70475971  0.41716134  0.88682240     0.06700
Br1530     Br  0.66742231  0.42342738  0.96468645    -0.03900
C1531       C  0.83315321  0.04109291  0.56426314    -0.10500
C1532       C  0.87459640  0.04760147  0.57627442     0.05700
C1533       C  0.88114525  0.06355940  0.61463233    -0.04300
C1534       C  0.84717564  0.06809398  0.64089926    -0.08700
C1535       C  0.80646595  0.05660443  0.63005505     0.04800
C1536       C  0.79933665  0.04547554  0.59051402    -0.03700
Br1537     Br  0.74464515  0.03054334  0.57142230    -0.03400
H1538       H  0.82727425  0.02963995  0.53505369     0.08700
H1539       H  0.85341576  0.07657941  0.67088815     0.06700
Br1540     Br  0.93606838  0.07396394  0.63547858    -0.03900
C1541       C  0.94847230  0.36338731  0.56520175    -0.10500
C1542       C  0.96113687  0.40278425  0.57823565     0.05700
C1543       C  0.96826155  0.41053115  0.61847382    -0.04300
C1544       C  0.96299799  0.37896752  0.64416655    -0.08700
C1545       C  0.94852729  0.34043174  0.63170470     0.04800
C1546       C  0.94103034  0.33221245  0.59204198    -0.03700
Br1547     Br  0.91562759  0.28200542  0.57359430    -0.03400
H1548       H  0.94145634  0.35787705  0.53478555     0.08700
H1549       H  0.96956876  0.38498972  0.67464315     0.06700
Br1550     Br  0.48418732  0.46120383  0.64635290    -0.03900
C1551       C  0.05310971  0.10754948  0.88754755    -0.10500
C1552       C  0.54415715  0.11668955  0.92811190     0.05700
C1553       C  0.52908180  0.15701342  0.93724226    -0.04300
C1554       C  0.52686476  0.18665144  0.90809254    -0.08700
C1555       C  0.53845505  0.17605128  0.86951415     0.04800
C1556       C  0.05275137  0.13638453  0.85784042    -0.03700
Br1557     Br  0.07383128  0.11689174  0.80813387    -0.03400
H1558       H  0.06272881  0.07553970  0.88100004     0.08700
H1559       H  0.51270855  0.21686131  0.91517996     0.06700
Br1560     Br  0.50802780  0.17173983  0.98799696    -0.03900
C1561       C  0.84453381  0.90594663  0.33989854     0.85200
C1562       C  0.82176015  0.87512390  0.36661438    -0.55100
C1563       C  0.84675985  0.84963288  0.38916403     0.08100
C1564       C  0.89506404  0.85891531  0.38240262     0.19000
C1565       C  0.87227555  0.93137818  0.36726961    -0.55800
C1566       C  0.89811499  0.90897649  0.39126778     0.08200
C1567       C  0.87559452  0.87773415  0.31614063    -0.55300
C1568       C  0.90218897  0.85134009  0.33608263     0.08700
H1569       H  0.78759955  0.87370260  0.36750903     0.13300
H1570       H  0.91608342  0.83956497  0.40071098    -0.01000
H1571       H  0.86996656  0.96531995  0.36891184     0.13600
H1572       H  0.87476205  0.87740388  0.28461751     0.13400
C1573       C  0.65088102  0.59971277  0.15263085     0.85200
C1574       C  0.62076187  0.63017572  0.17317062    -0.55100
C1575       C  0.59403127  0.65287457  0.15019368     0.08100
C1576       C  0.60330218  0.64377269  0.10525884     0.19000
C1577       C  0.62186515  0.57285784  0.12644288    -0.55800
C1578       C  0.59705207  0.59473912  0.10081595     0.08200
C1579       C  0.67566432  0.62574089  0.12318628    -0.55300
C1580       C  0.65268621  0.65063955  0.09877162     0.08700
H1581       H  0.61967644  0.63182386  0.20469613     0.13300
H1582       H  0.58315700  0.66232676  0.08548116    -0.01000
H1583       H  0.62202372  0.53891646  0.12716536     0.13600
H1584       H  0.70925858  0.62160475  0.11983885     0.13400
O1585       O  0.53245744  0.96900967  0.42601986    -0.81500
O1586       O  0.96095511  0.97494815  0.07145324    -0.81500
O1587       O  0.59023559  0.98494449  0.54677122    -0.81500
O1588       O  0.91694049  0.93315728  0.45956065    -0.81400
O1589       O  0.54299931  0.97689897  0.07437033    -0.81600
O1590       O  0.94725638  0.96456679  0.41064173    -0.81500
O1591       O  0.96601522  0.93394066  0.01992716    -0.81500
O1592       O  0.57691490  0.96512020  0.47290819    -0.81500
C1593       C  0.56877790  0.96010170  0.43762329     1.08200
C1594       C  0.96320108  0.93894334  0.05631860     1.08100
C1595       C  0.56000488  0.94684983  0.05396966     1.08200
C1596       C  0.92270918  0.93516300  0.42208822     1.08100
O1597       O  0.95910965  0.51936966  0.42496836    -0.81500
O1598       O  0.54767627  0.54010143  0.08010258    -0.81600
O1599       O  0.58203082  0.53926206  0.44851181    -0.81500
O1600       O  0.90554233  0.00493767  0.03299212    -0.81500
O1601       O  0.94420845  0.05869706  0.05149579    -0.81500
O1602       O  0.00680690  0.52315559  0.42619278    -0.81500
O1603       O  0.93198645  0.54542736  0.47551814    -0.81400
O1604       O  0.57481515  0.57892793  0.03482292    -0.81500
Co1605     Co  0.98923347  0.47756460  0.46313316     1.51500
Co1606     Co  0.49409651  0.01740236  0.05780252     1.51700
Co1607     Co  0.56784121  0.49383956  0.48782026     1.51600
Co1608     Co  0.94479020  0.98107928  0.99011582     1.51500
O1609       O  0.00345036  0.01483862  0.50537021    -1.43400
C1610       C  0.93140034  0.54408600  0.43986224     1.08100
C1611       C  0.57060661  0.57112518  0.07060348     1.08200
C1612       C  0.55851161  0.56946827  0.43812463     1.08200
C1613       C  0.91001826  0.53590734  0.04782033     1.08100
O1614       O  0.83078538  0.78084404  0.41930712    -0.81500
O1615       O  0.77401741  0.74011811  0.06264986    -0.81500
O1616       O  0.76840415  0.83680259  0.01967783    -0.81500
O1617       O  0.76672564  0.65432074  0.46042680    -0.81400
O1618       O  0.72996755  0.80292808  0.06357642    -0.81600
O1619       O  0.81683209  0.69647761  0.44193134    -0.81500
O1620       O  0.77256339  0.68232225  0.03516038    -0.81500
O1621       O  0.79317508  0.83608629  0.43621862    -0.81500
C1622       C  0.82443533  0.82037303  0.41779273     1.08200
C1623       C  0.78915990  0.70440136  0.06073399     1.08100
C1624       C  0.75957095  0.82791055  0.05480649     1.08200
C1625       C  0.80293728  0.65967314  0.44513461     1.08100
O1626       O  0.73276510  0.70241800  0.41073846    -0.81500
O1627       O  0.66026994  0.76889257  0.02171883    -0.81600
O1628       O  0.70562036  0.81367375  0.43157422    -0.81500
O1629       O  0.68815305  0.66412257  0.03522408    -0.81500
O1630       O  0.68810906  0.71648872  0.07865687    -0.81500
O1631       O  0.74669636  0.78175898  0.38941053    -0.81500
O1632       O  0.69018610  0.70136197  0.46188979    -0.81400
O1633       O  0.69982795  0.82941667  0.50799834    -0.81500
Co1634     Co  0.78055787  0.74110003  0.42062774     1.51500
Co1635     Co  0.71867480  0.74896655  0.03591251     1.51700
Co1636     Co  0.74763450  0.81941172  0.47380107     1.51600
Co1637     Co  0.72311414  0.70363751  0.00180031     1.51500
O1638       O  0.76057193  0.75567675  0.47754866    -1.43400
C1639       C  0.69781001  0.69287146  0.42624642     1.08100
C1640       C  0.65536128  0.80836704  0.02507801     1.08200
C1641       C  0.71230090  0.80024254  0.39741803     1.08200
C1642       C  0.67616524  0.67871832  0.06918061     1.08100
O1643       O  0.53224578  0.79759109  0.30626431    -0.81500
O1644       O  0.96779523  0.76636208  0.14848840    -0.81500
O1645       O  0.57228591  0.75992006  0.22806587    -0.81500
O1646       O  0.92942948  0.82268759  0.27352269    -0.81400
O1647       O  0.53266605  0.78062136  0.18176407    -0.81600
O1648       O  0.94705109  0.78485922  0.32319229    -0.81500
O1649       O  0.94114718  0.81263454  0.19238649    -0.81500
O1650       O  0.57179363  0.75659390  0.26838689    -0.81500
C1651       C  0.56858976  0.78506887  0.29601859     1.08200
C1652       C  0.95334940  0.80251999  0.15819028     1.08100
C1653       C  0.56613434  0.78365348  0.19951741     1.08200
C1654       C  0.92841607  0.81799791  0.31049910     1.08100
O1655       O  0.95324118  0.70067942  0.28496278    -0.81500
O1656       O  0.52924380  0.69978679  0.15501342    -0.81600
O1657       O  0.54072914  0.69215089  0.29117368    -0.81500
O1658       O  0.90386600  0.73482773  0.19205786    -0.81500
O1659       O  0.95445332  0.68771906  0.18076182    -0.81500
O1660       O  0.01230786  0.71966495  0.33516369    -0.81500
O1661       O  0.89781482  0.73900995  0.27218399    -0.81400
O1662       O  0.56317464  0.68259866  0.20909313    -0.81500
Co1663     Co  0.99057440  0.74751840  0.29058387     1.51500
Co1664     Co  0.49392267  0.73603275  0.19334868     1.51700
Co1665     Co  0.52507168  0.72174352  0.23900351     1.51600
Co1666     Co  0.92202689  0.77602006  0.23279345     1.51500
O1667       O  0.98332946  0.75622294  0.23468799    -1.43400
C1668       C  0.91442405  0.70471153  0.28173041     1.08100
C1669       C  0.56024104  0.67982370  0.17152628     1.08200
C1670       C  0.53655162  0.69645437  0.32873011     1.08200
C1671       C  0.91699420  0.70128344  0.17540607     1.08100
O1672       O  0.79239766  0.96427207  0.32629732    -0.81500
O1673       O  0.74949941  0.51406066  0.15453032    -0.81500
O1674       O  0.78130872  0.90536048  0.20829959    -0.81500
O1675       O  0.77158215  0.58881841  0.26480539    -0.81400
O1676       O  0.76716260  0.94792544  0.15980220    -0.81600
O1677       O  0.79886297  0.54111643  0.30329911    -0.81500
O1678       O  0.77966172  0.55474387  0.19556625    -0.81500
O1679       O  0.80765938  0.92012123  0.27961075    -0.81500
C1680       C  0.81379888  0.93234063  0.31401662     1.08200
C1681       C  0.77746686  0.54031777  0.16120426     1.08100
C1682       C  0.78751050  0.91791050  0.17406673     1.08200
C1683       C  0.79944679  0.57678124  0.28838877     1.08100
O1684       O  0.72447107  0.54456633  0.34094323    -0.81500
O1685       O  0.68927318  0.93879685  0.17723563    -0.81600
O1686       O  0.72171971  0.92067960  0.30906682    -0.81500
O1687       O  0.70257349  0.59445568  0.20707652    -0.81500
O1688       O  0.67995793  0.53529156  0.18097337    -0.81500
O1689       O  0.70376241  0.98663344  0.31146560    -0.81500
O1690       O  0.69208693  0.56176095  0.28485744    -0.81400
O1691       O  0.69406050  0.90966004  0.23532433    -0.81500
Co1692     Co  0.74667669  0.51012309  0.30210495     1.51500
Co1693     Co  0.72755912  0.98308026  0.18751539     1.51700
Co1694     Co  0.75046069  0.91888445  0.25672353     1.51600
Co1695     Co  0.73377612  0.55132163  0.23682890     1.51500
O1696       O  0.74803702  0.98134678  0.24262875    -1.43400
C1697       C  0.69740375  0.56655797  0.32263148     1.08100
C1698       C  0.67835292  0.91260853  0.20183287     1.08200
C1699       C  0.69851871  0.94985029  0.32241573     1.08200
C1700       C  0.67927590  0.57560014  0.18197234     1.08100
C1701       C  0.85096238  0.67618025  0.30956492    -0.10500
C1702       C  0.88857496  0.66926693  0.28926682     0.05700
C1703       C  0.90005460  0.62883729  0.27542445    -0.04300
C1704       C  0.87165042  0.59670000  0.27927325    -0.08700
C1705       C  0.83282939  0.60472600  0.29700009     0.04800
C1706       C  0.82330483  0.64372497  0.31394294    -0.03700
Br1707     Br  0.77245144  0.65399390  0.34202056    -0.03400
H1708       H  0.84282167  0.70691106  0.32136572     0.08700
H1709       H  0.87853872  0.56638254  0.26596206     0.06700
Br1710     Br  0.95205205  0.61576185  0.24875665    -0.03900
C1711       C  0.66503051  0.84058489  0.18814941    -0.10500
C1712       C  0.64916321  0.88149592  0.19076116     0.05700
C1713       C  0.60609558  0.89038317  0.18812596    -0.04300
C1714       C  0.57858875  0.85714715  0.18766608    -0.06500
C1715       C  0.59458484  0.81611646  0.18987697     0.04800
C1716       C  0.63768382  0.80752834  0.18718373    -0.03700
Br1717     Br  0.65992059  0.75150065  0.18321602    -0.03400
H1718       H  0.69863296  0.83445839  0.18915652     0.08700
H1719       H  0.54496827  0.86334431  0.18866370     0.06700
Br1720     Br  0.58398110  0.94657683  0.18915215    -0.03900
C1721       C  0.80495229  0.88486697  0.07936585    -0.10500
C1722       C  0.78383317  0.84728026  0.08613447     0.05700
C1723       C  0.78699646  0.82916866  0.12331739    -0.04300
C1724       C  0.80755874  0.85011057  0.15283988    -0.08700
C1725       C  0.81435563  0.89244643  0.14834696     0.04800
C1726       C  0.82153011  0.90692041  0.11081049    -0.03700
Br1727     Br  0.85058112  0.95762009  0.10343651    -0.03400
H1728       H  0.80643849  0.89816678  0.05065223     0.08700
H1729       H  0.80651482  0.83718029  0.18177593     0.06700
Br1730     Br  0.75797807  0.78132322  0.13998451    -0.03900
C1731       C  0.66757041  0.67255352  0.36285128    -0.10500
C1732       C  0.67167183  0.66398272  0.40271738     0.05700
C1733       C  0.66833865  0.62202865  0.41418656    -0.04300
C1734       C  0.66926683  0.58983470  0.38624927    -0.08700
C1735       C  0.67380766  0.59830299  0.34649927     0.04800
C1736       C  0.66899897  0.64019294  0.33464489    -0.03700
Br1737     Br  0.67371054  0.65605814  0.28127290    -0.03400
H1738       H  0.66972327  0.70456687  0.35331389     0.08700
H1739       H  0.67104175  0.55776694  0.39602017     0.06700
Br1740     Br  0.66867792  0.60557938  0.46730870    -0.03900
C1741       C  0.63982900  0.82344146  0.37778222    -0.10500
C1742       C  0.67873316  0.80490293  0.36704306     0.05700
C1743       C  0.68258734  0.78794457  0.32878325    -0.04300
C1744       C  0.64695030  0.78489478  0.30488528    -0.08700
C1745       C  0.60702415  0.79953862  0.31734390     0.04800
C1746       C  0.60453292  0.82146884  0.35347437    -0.03700
Br1747     Br  0.55373967  0.84769497  0.37320470    -0.03400
H1748       H  0.63613950  0.83828883  0.40612433     0.08700
H1749       H  0.65028978  0.76914078  0.27692887     0.06700
Br1750     Br  0.73471554  0.76675945  0.30705481    -0.03900
C1751       C  0.86506449  0.68512132  0.07763623    -0.10500
C1752       C  0.82244480  0.68939005  0.08885483     0.05700
C1753       C  0.81304347  0.68374345  0.12876642    -0.04300
C1754       C  0.84508368  0.68121373  0.15649425    -0.08700
C1755       C  0.88762727  0.68282152  0.14597741     0.04800
C1756       C  0.89741586  0.68111976  0.10573816    -0.03700
Br1757     Br  0.95453551  0.67692012  0.08781731    -0.03400
H1758       H  0.87352703  0.68736745  0.04721586     0.08700
H1759       H  0.83655306  0.68124216  0.18705806     0.06700
Br1760     Br  0.75738166  0.68008490  0.14889487    -0.03900
C1761       C  0.86540905  0.63186142  0.40789451    -0.10500
C1762       C  0.83017527  0.62389069  0.43179954     0.05700
C1763       C  0.82393921  0.58237067  0.44373013    -0.04300
C1764       C  0.85585773  0.55250756  0.43757523    -0.08700
C1765       C  0.89456975  0.56315149  0.42064918     0.04800
C1766       C  0.89692339  0.60130025  0.40163810    -0.03700
Br1767     Br  0.93995045  0.61059246  0.36449769    -0.03400
H1768       H  0.86917443  0.66227850  0.39496487     0.08700
H1769       H  0.85265907  0.52236034  0.45118009     0.06700
Br1770     Br  0.77596175  0.56457741  0.47284728    -0.03900
C1771       C  0.64059495  0.86448217  0.07380906    -0.10500
C1772       C  0.62419383  0.83126896  0.05100329     0.05700
C1773       C  0.58097049  0.83252566  0.04322170    -0.04300
C1774       C  0.55732005  0.86935292  0.05161367    -0.08700
C1775       C  0.57560528  0.90556927  0.06845120     0.04800
C1776       C  0.61745046  0.90165563  0.08110840    -0.03700
Br1777     Br  0.64829619  0.94969039  0.09745602    -0.03400
H1778       H  0.67383803  0.86448190  0.08049431     0.08700
H1779       H  0.52650643  0.87160814  0.03913483     0.06700
Br1780     Br  0.55461743  0.78739951  0.01597703    -0.03900
C1781       C  0.59186686  0.95158014  0.36940638    -0.10500
C1782       C  0.60187218  0.94748141  0.40890235     0.05700
C1783       C  0.64406289  0.93728817  0.41890153    -0.04300
C1784       C  0.67499869  0.93382832  0.38961620    -0.08700
C1785       C  0.66495140  0.94189385  0.35080204     0.04800
C1786       C  0.62296008  0.94991822  0.34083727    -0.03700
Br1787     Br  0.60702130  0.96305066  0.28891053    -0.03400
H1788       H  0.56003704  0.95929472  0.36060575     0.08700
H1789       H  0.70751610  0.92806552  0.39754417     0.06700
Br1790     Br  0.66295558  0.93138074  0.47148615    -0.03900
C1791       C  0.83339029  0.54411447  0.06312214    -0.10500
C1792       C  0.87525781  0.55041285  0.07452705     0.05700
C1793       C  0.88284934  0.56167969  0.11389210    -0.04300
C1794       C  0.84968431  0.56218093  0.14117864    -0.08700
C1795       C  0.80873518  0.55087624  0.13041880     0.04800
C1796       C  0.80033893  0.54431458  0.09044981    -0.03700
Br1797     Br  0.74490617  0.53256739  0.07148468    -0.03400
H1798       H  0.82675430  0.53586247  0.03316938     0.08700
H1799       H  0.85680746  0.56787222  0.17153388     0.06700
Br1800     Br  0.93839793  0.56994659  0.13400715    -0.03900
C1801       C  0.94663930  0.86510790  0.06712067    -0.10500
C1802       C  0.95940207  0.90390878  0.08209490     0.05700
C1803       C  0.96733679  0.90900514  0.12227168    -0.04300
C1804       C  0.96631671  0.87467917  0.14551978    -0.08700
C1805       C  0.95432670  0.83588943  0.13066927     0.04800
C1806       C  0.94283371  0.83120250  0.09157430    -0.03700
Br1807     Br  0.91734215  0.78175437  0.07131870    -0.03400
H1808       H  0.93831695  0.86153675  0.03678208     0.08700
H1809       H  0.97434949  0.87861879  0.17593406     0.06700
Br1810     Br  0.47982878  0.96159747  0.14494989    -0.03900
C1811       C  0.05199249  0.57908687  0.36537289    -0.10500
C1812       C  0.57132315  0.60267188  0.41157966     0.05700
C1813       C  0.56620564  0.64488872  0.42301570    -0.04300
C1814       C  0.55837217  0.67546192  0.39519070    -0.08700
C1815       C  0.55542950  0.66493379  0.35542708     0.04800
C1816       C  0.05473487  0.61228837  0.33973359    -0.03700
Br1817     Br  0.08275162  0.60087040  0.29088372    -0.03400
H1818       H  0.06358981  0.54830433  0.35658625     0.08700
H1819       H  0.55225043  0.70732439  0.40506951     0.06700
Br1820     Br  0.56623612  0.66159947  0.47677095    -0.03900
C1821       C  0.84075428  0.91519371  0.84924490     0.85200
C1822       C  0.81529849  0.88586811  0.87544842    -0.55100
C1823       C  0.83774254  0.85819525  0.89810702     0.08100
C1824       C  0.88713591  0.86433253  0.89197235     0.19000
C1825       C  0.87018399  0.93841257  0.87706994    -0.55800
C1826       C  0.89472198  0.91403576  0.90086275     0.08200
C1827       C  0.87005253  0.88534066  0.82588701    -0.55300
C1828       C  0.89417373  0.85705773  0.84577920     0.08700
H1829       H  0.78108973  0.88646568  0.87512536     0.13300
H1830       H  0.90645685  0.84314934  0.91010823    -0.01000
H1831       H  0.86990400  0.97236851  0.87921806     0.13600
H1832       H  0.87020257  0.88579083  0.79437371     0.13400
C1833       C  0.64755991  0.58953982  0.63531491     0.85200
C1834       C  0.61655173  0.61903772  0.65689484    -0.55100
C1835       C  0.59285680  0.64594594  0.63484003     0.08100
C1836       C  0.60443403  0.63957389  0.58947536     0.19000
C1837       C  0.62072250  0.56647300  0.60518055    -0.55800
C1838       C  0.59786037  0.59072571  0.58025331     0.08200
C1839       C  0.67496704  0.61819937  0.61049445    -0.55300
C1840       C  0.65462475  0.64522298  0.58618423     0.08700
H1841       H  0.61373695  0.61825175  0.68832952     0.13300
H1842       H  0.58630464  0.66046061  0.57009072    -0.01000
H1843       H  0.61963092  0.53271130  0.60364854     0.13600
H1844       H  0.70869176  0.61546389  0.61082354     0.13400
O1845       O  0.52416256  0.00804554  0.90759500    -0.81500
O1846       O  0.96418579  0.97262458  0.57201613    -0.81500
O1847       O  0.56574299  0.95084951  0.01842883    -0.81500
O1848       O  0.90109996  0.94542318  0.96699861    -0.81400
O1849       O  0.53440720  0.95570171  0.56831689    -0.81600
O1850       O  0.95337922  0.95880752  0.92767212    -0.81500
O1851       O  0.97749764  0.93068447  0.52258496    -0.81500
O1852       O  0.55018215  0.96420419  0.94726664    -0.81500
C1853       C  0.55004892  0.97879946  0.91404570     1.08200
C1854       C  0.96997585  0.93650164  0.55848564     1.08100
C1855       C  0.57171352  0.95239333  0.55719395     1.08200
C1856       C  0.91848548  0.93832921  0.93402491     1.08100
O1857       O  0.94373775  0.53315439  0.90141963    -0.81500
O1858       O  0.53176273  0.57202072  0.54778461    -0.81600
O1859       O  0.56416259  0.57257686  0.95438891    -0.81500
O1860       O  0.90907769  0.99784892  0.53151719    -0.81500
O1861       O  0.94424620  0.05400745  0.55178574    -0.81500
O1862       O  0.00000307  0.56905922  0.95163175    -0.81500
O1863       O  0.91584562  0.52438197  0.95993463    -0.81400
O1864       O  0.58780999  0.53557970  0.53090509    -0.81500
Co1865     Co  0.97716754  0.51271699  0.94334779     1.51500
Co1866     Co  0.49653518  0.00596138  0.56824524     1.51700
Co1867     Co  0.57760554  0.53258752  0.99418346     1.51600
Co1868     Co  0.95298746  0.97551606  0.49083622     1.51500
O1869       O  0.99943381  0.01074381  0.00252575    -1.43400
C1870       C  0.91454361  0.54066277  0.92603079     1.08100
C1871       C  0.57139011  0.56718572  0.54943709     1.08200
C1872       C  0.54988507  0.56527708  0.92057059     1.08200
C1873       C  0.91962528  0.54726318  0.56039402     1.08100
O1874       O  0.82031576  0.78899963  0.92876083    -0.81500
O1875       O  0.77049562  0.72678683  0.56346034    -0.81500
O1876       O  0.78481103  0.82588642  0.51892634    -0.81500
O1877       O  0.75512170  0.66134405  0.96821869    -0.81400
O1878       O  0.73949193  0.79315698  0.55827389    -0.81600
O1879       O  0.80610854  0.70470134  0.95410769    -0.81500
O1880       O  0.79389129  0.68149904  0.52542859    -0.81500
O1881       O  0.77710957  0.84205816  0.93782330    -0.81500
C1882       C  0.81197854  0.82795225  0.92416150     1.08200
C1883       C  0.79736102  0.69868465  0.55775618     1.08100
C1884       C  0.77098834  0.81739729  0.55287345     1.08200
C1885       C  0.79251614  0.66762752  0.95575827     1.08100
O1886       O  0.72568131  0.70619915  0.91541867    -0.81500
O1887       O  0.66928184  0.76942957  0.50685121    -0.81600
O1888       O  0.69071705  0.81301082  0.93288632    -0.81500
O1889       O  0.70538767  0.65736069  0.53149130    -0.81500
O1890       O  0.68489736  0.71339529  0.56577038    -0.81500
O1891       O  0.73769208  0.78530529  0.89330726    -0.81500
O1892       O  0.67750603  0.70744099  0.96244297    -0.81400
O1893       O  0.68260902  0.83150739  0.01064662    -0.81500
Co1894     Co  0.77140920  0.74693571  0.92776548     1.51500
Co1895     Co  0.72290735  0.74241782  0.52688247     1.51700
Co1896     Co  0.73100543  0.82469924  0.97559995     1.51600
Co1897     Co  0.73973606  0.69730948  0.49679259     1.51500
O1898       O  0.74716218  0.76211728  0.98268321    -1.43400
C1899       C  0.68894564  0.69765547  0.92783789     1.08100
C1900       C  0.66763984  0.80856289  0.51386256     1.08200
C1901       C  0.70097186  0.80021975  0.89909545     1.08200
C1902       C  0.68173509  0.67345078  0.55935500     1.08100
O1903       O  0.53080395  0.79780284  0.78990481    -0.81500
O1904       O  0.95940919  0.77299195  0.65872268    -0.81500
O1905       O  0.57215064  0.75929379  0.71579317    -0.81500
O1906       O  0.91450700  0.82613327  0.78275706    -0.81400
O1907       O  0.53281233  0.78129959  0.66989558    -0.81600
O1908       O  0.93917623  0.79164406  0.83260555    -0.81500
O1909       O  0.92722081  0.81824155  0.70043075    -0.81500
O1910       O  0.57181998  0.75366533  0.75693713    -0.81500
C1911       C  0.56722934  0.78288188  0.78397830     1.08200
C1912       C  0.94171716  0.80816942  0.66669659     1.08100
C1913       C  0.56585044  0.78485644  0.68876928     1.08200
C1914       C  0.91789183  0.82299397  0.81979244     1.08100
O1915       O  0.94943146  0.70652371  0.79419006    -0.81500
O1916       O  0.53112349  0.69783517  0.64160922    -0.81600
O1917       O  0.53873038  0.69067625  0.77568659    -0.81500
O1918       O  0.89743023  0.73773621  0.70013735    -0.81500
O1919       O  0.95185767  0.69509502  0.69313553    -0.81500
O1920       O  0.00500705  0.73135661  0.84544406    -0.81500
O1921       O  0.89063604  0.73944410  0.78102273    -0.81400
O1922       O  0.56528480  0.67996918  0.69480964    -0.81500
Co1923     Co  0.98354445  0.75607613  0.80049422     1.51500
Co1924     Co  0.49618511  0.73364956  0.68148818     1.51700
Co1925     Co  0.52563624  0.72014186  0.72379142     1.51600
Co1926     Co  0.91115573  0.77972546  0.74178607     1.51500
O1927       O  0.97381385  0.76916166  0.74715334    -1.43400
C1928       C  0.91045165  0.70668091  0.79079643     1.08100
C1929       C  0.56157094  0.67625187  0.65727227     1.08200
C1930       C  0.53604265  0.69588153  0.81307980     1.08200
C1931       C  0.91431881  0.70560351  0.68419692     1.08100
O1932       O  0.79100794  0.97483975  0.83236928    -0.81500
O1933       O  0.75927670  0.53221509  0.66709089    -0.81500
O1934       O  0.78624185  0.91453983  0.71370991    -0.81500
O1935       O  0.77351992  0.58902761  0.78249078    -0.81400
O1936       O  0.75177313  0.94694072  0.66594254    -0.81600
O1937       O  0.80628170  0.53182013  0.80037162    -0.81500
O1938       O  0.78389184  0.57948941  0.70546008    -0.81500
O1939       O  0.80874523  0.93034540  0.78701444    -0.81500
C1940       C  0.81255968  0.94249369  0.82171843     1.08200
C1941       C  0.78572385  0.56001581  0.67348786     1.08100
C1942       C  0.77938616  0.92133482  0.67814959     1.08200
C1943       C  0.80500530  0.57097029  0.79696431     1.08100
O1944       O  0.72446676  0.55460760  0.83118644    -0.81500
O1945       O  0.67428549  0.95318317  0.69270981    -0.81600
O1946       O  0.71963798  0.93162117  0.81052253    -0.81500
O1947       O  0.69177584  0.57703011  0.69360130    -0.81500
O1948       O  0.67885231  0.52188436  0.65539892    -0.81500
O1949       O  0.70476313  0.99843190  0.81043446    -0.81500
O1950       O  0.68673674  0.57416074  0.78028463    -0.81400
O1951       O  0.70066074  0.91001922  0.73595326    -0.81500
Co1952     Co  0.75050232  0.50517610  0.80385588     1.51500
Co1953     Co  0.72108486  0.99043231  0.69535821     1.51700
Co1954     Co  0.75356279  0.92670928  0.76098772     1.51600
Co1955     Co  0.73446908  0.57292746  0.74123601     1.51500
O1956       O  0.75442185  0.98898789  0.74663748    -1.43400
C1957       C  0.69428386  0.57615757  0.81684703     1.08100
C1958       C  0.67387819  0.91936990  0.71049790     1.08200
C1959       C  0.69483572  0.96189769  0.81840353     1.08200
C1960       C  0.67350279  0.56086533  0.66297169     1.08100
C1961       C  0.85166348  0.67174089  0.82172327    -0.10500
C1962       C  0.88831205  0.66842918  0.79951578     0.05700
C1963       C  0.90270219  0.62874613  0.78573916    -0.04300
C1964       C  0.87761428  0.59380068  0.79102498    -0.08700
C1965       C  0.83854392  0.59831581  0.80949405     0.04800
C1966       C  0.82698036  0.63697142  0.82713336    -0.03700
Br1967     Br  0.77448773  0.64574348  0.85378830    -0.03400
H1968       H  0.84128119  0.70181647  0.83353163     0.08700
H1969       H  0.88628407  0.56444926  0.77672941     0.06700
Br1970     Br  0.95295093  0.62089808  0.75508797    -0.03900
C1971       C  0.66279827  0.84651516  0.69322509    -0.10500
C1972       C  0.64537897  0.88680179  0.69847996     0.05700
C1973       C  0.60239863  0.89423345  0.69197365    -0.04300
C1974       C  0.57655488  0.86025915  0.68445768    -0.06500
C1975       C  0.59368241  0.81955891  0.68336468     0.04800
C1976       C  0.63715107  0.81286095  0.68552378    -0.03700
Br1977     Br  0.66203843  0.75797103  0.67997987    -0.03400
H1978       H  0.69637188  0.84102302  0.69626898     0.08700
H1979       H  0.54281972  0.86525275  0.68274110     0.06700
Br1980     Br  0.57730413  0.94893091  0.69721712    -0.03900
C1981       C  0.80774833  0.87835493  0.58209673    -0.10500
C1982       C  0.78829658  0.83944243  0.58673060     0.05700
C1983       C  0.78138576  0.82492237  0.62472555    -0.04300
C1984       C  0.78665392  0.85118161  0.65618194    -0.08700
C1985       C  0.79803314  0.89218061  0.65057261     0.04800
C1986       C  0.81325966  0.90449641  0.61447287    -0.03700
Br1987     Br  0.84640664  0.95318160  0.61087769    -0.03400
H1988       H  0.81669776  0.88923667  0.55360639     0.08700
H1989       H  0.77655180  0.84101747  0.68466607     0.06700
Br1990     Br  0.76095841  0.77195767  0.63792247    -0.03900
C1991       C  0.66303686  0.67984936  0.86243014    -0.10500
C1992       C  0.66447710  0.66944437  0.90195098     0.05700
C1993       C  0.66097978  0.62686713  0.91139106    -0.04300
C1994       C  0.66527985  0.59586574  0.88217050    -0.08700
C1995       C  0.67167757  0.60660577  0.84308935     0.04800
C1996       C  0.66670618  0.64906006  0.83300916    -0.03700
Br1997     Br  0.67380027  0.66805001  0.78073829    -0.03400
H1998       H  0.66520846  0.71232658  0.85444539     0.08700
H1999       H  0.66746086  0.56333045  0.89049212     0.06700
Br2000     Br  0.65687509  0.60926851  0.96411830    -0.03900
C2001       C  0.62710553  0.81184362  0.87653829    -0.10500
C2002       C  0.66906498  0.80182290  0.86673434     0.05700
C2003       C  0.67783468  0.79061459  0.82730978    -0.04300
C2004       C  0.64475722  0.78664415  0.80022993    -0.08700
C2005       C  0.60253901  0.79493417  0.81077247     0.04800
C2006       C  0.59439666  0.80908694  0.84952909    -0.03700
Br2007     Br  0.53912245  0.82189613  0.87013132    -0.03400
H2008       H  0.61900327  0.82026680  0.90625135     0.08700
H2009       H  0.65207483  0.77594345  0.77092655     0.06700
Br2010     Br  0.73370895  0.77858653  0.80827604    -0.03900
C2011       C  0.87324715  0.68571721  0.58126224    -0.10500
C2012       C  0.82947545  0.68699052  0.58872273     0.05700
C2013       C  0.81692275  0.68053335  0.62774946    -0.04300
C2014       C  0.84612912  0.68107973  0.65823810    -0.08700
C2015       C  0.88933742  0.68580130  0.65160914     0.04800
C2016       C  0.90300569  0.68461341  0.61215318    -0.03700
Br2017     Br  0.96159936  0.68441521  0.59867082    -0.03400
H2018       H  0.88446116  0.68819182  0.55163008     0.08700
H2019       H  0.83454600  0.68017195  0.68789370     0.06700
Br2020     Br  0.76023581  0.66989184  0.64237979    -0.03900
C2021       C  0.85826931  0.64314942  0.92235160    -0.10500
C2022       C  0.82047000  0.63290165  0.94160126     0.05700
C2023       C  0.81106928  0.59020440  0.94623359    -0.04300
C2024       C  0.84050916  0.55960058  0.93481748    -0.08700
C2025       C  0.87983944  0.57034061  0.91949607     0.04800
C2026       C  0.88772566  0.61233255  0.91121470    -0.03700
Br2027     Br  0.93985978  0.62984685  0.88894600    -0.03400
H2028       H  0.86580842  0.67548263  0.91691555     0.08700
H2029       H  0.83427348  0.52720184  0.94143502     0.06700
Br2030     Br  0.76133108  0.57049344  0.97124890    -0.03900
C2031       C  0.64783373  0.85972736  0.56446498    -0.10500
C2032       C  0.63356734  0.83258729  0.53459302     0.05700
C2033       C  0.59506853  0.84255433  0.51677935    -0.04300
C2034       C  0.57361479  0.88028319  0.52686997    -0.08700
C2035       C  0.59141559  0.90985753  0.55279520     0.04800
C2036       C  0.62874269  0.89885544  0.57175994    -0.03700
Br2037     Br  0.65783844  0.93826868  0.60376235    -0.03400
H2038       H  0.67779384  0.85327127  0.57822412     0.08700
H2039       H  0.54479205  0.88815800  0.51184791     0.06700
Br2040     Br  0.57390304  0.80834031  0.47532358    -0.03900
C2041       C  0.58396773  0.98509458  0.84981124    -0.10500
C2042       C  0.58278009  0.96530289  0.88576243     0.05700
C2043       C  0.61598572  0.93699471  0.89551253    -0.04300
C2044       C  0.65122997  0.93291073  0.87116903    -0.08700
C2045       C  0.65402855  0.95652579  0.83751630     0.04800
C2046       C  0.61916884  0.98098617  0.82580347    -0.03700
Br2047     Br  0.61886218  0.01148615  0.77810577    -0.03400
H2048       H  0.55855524  0.00589128  0.84124304     0.08700
H2049       H  0.67776797  0.91370376  0.88004168     0.06700
Br2050     Br  0.61808970  0.90532113  0.94265834    -0.03900
C2051       C  0.84376768  0.55971403  0.57587636    -0.10500
C2052       C  0.88571940  0.56278006  0.58763750     0.05700
C2053       C  0.89361001  0.57289207  0.62738682    -0.04300
C2054       C  0.86016149  0.57563721  0.65438290    -0.08700
C2055       C  0.81866469  0.56752845  0.64317708     0.04800
C2056       C  0.81064254  0.56099253  0.60297440    -0.03700
Br2057     Br  0.75612753  0.54838446  0.58264790    -0.03400
H2058       H  0.83686980  0.55236293  0.54576646     0.08700
H2059       H  0.86712371  0.58092389  0.68483894     0.06700
Br2060     Br  0.94914686  0.57852405  0.64859921    -0.03900
C2061       C  0.94952588  0.86405012  0.57162076    -0.10500
C2062       C  0.96250792  0.90303972  0.58553029     0.05700
C2063       C  0.96429588  0.91111383  0.62617961    -0.04300
C2064       C  0.95520224  0.87973364  0.65150319    -0.08700
C2065       C  0.94358710  0.84048807  0.63780849     0.04800
C2066       C  0.93941399  0.83283255  0.59761977    -0.03700
Br2067     Br  0.91612496  0.78281656  0.57665991    -0.03400
H2068       H  0.94604008  0.85830212  0.54069674     0.08700
H2069       H  0.95858082  0.88583839  0.68240951     0.06700
Br2070     Br  0.48193699  0.95240015  0.64023230    -0.03900
C2071       C  0.05910119  0.59879684  0.88023221    -0.10500
C2072       C  0.55404841  0.59907397  0.89288919     0.05700
C2073       C  0.55160909  0.64132765  0.90569273    -0.04300
C2074       C  0.55142999  0.67277382  0.87865445    -0.08700
C2075       C  0.55211054  0.66333636  0.83886478     0.04800
C2076       C  0.05579937  0.62888303  0.85126844    -0.03700
Br2077     Br  0.06364876  0.60914250  0.79866589    -0.03400
H2078       H  0.06540202  0.56648410  0.87180416     0.08700
H2079       H  0.54706859  0.70476762  0.88897372     0.06700
Br2080     Br  0.54155351  0.65940096  0.95872213    -0.03900
loop_ 
_geom_bond_atom_site_label_1 
_geom_bond_atom_site_label_2 
_geom_bond_distance 
_geom_bond_site_symmetry_2 
_ccdc_geom_bond_type 
C1            C2   1.548       .  S
C1            C7   1.536       .  S
C1            C5   1.535       .  S
C1          C120   1.580       .  S
C2            H9   1.087       .  S
C2            C3   1.382       .  D
C3            C4   1.584       .  S
C3           C62   1.549       .  S
C4            C8   1.597       .  S
C4            C6   1.614       .  S
C4           H10   1.110       .  S
C5           H11   1.086       .  S
C5            C6   1.376       .  D
C6           C36   1.548       .  S
C7           H12   1.085       .  S
C7            C8   1.377       .  D
C8           C94   1.562       .  S
C13          C14   1.545       .  S
C13          C19   1.553       .  S
C13          C17   1.542       .  S
C13         C140   1.601       .  S
C14          H21   1.086       .  S
C14          C15   1.382       .  D
C15          C16   1.604       .  S
C15         C109   1.571       .  S
C16          C20   1.613       .  S
C16          C18   1.619       .  S
C16          H22   1.110       .  S
C17          H23   1.080       .  S
C17          C18   1.374       .  D
C18          C51   1.576       .  S
C19          H24   1.071       .  S
C19          C20   1.385       .  D
C20          C82   1.592       .  S
O25          C33   1.253       .  A
O25       Co1605   1.967   1_455  S
O26          C34   1.267       .  A
O26       Co1086   1.859       .  S
O27         C295   1.264       .  A
O27        Co567   2.002       .  S
O28          C36   1.283       .  A
O28        Co308   1.923       .  S
O29          C35   1.287       .  A
O29         Co46   2.086   1_455  S
O30          C36   1.335       .  A
O30        Co565   2.229       .  S
O31          C34   1.295       .  A
O31         Co48   2.061   1_554  S
O32          C33   1.255       .  A
O32        Co567   1.996       .  S
C33         C222   1.490       .  S
C34         C242   1.450       .  S
C35         O287   1.244       .  A
C35         C215   1.487       .  S
O37          C50   1.275       .  A
O37         Co45   2.101   1_545  S
O38          C51   1.266       .  A
O38        Co566   2.037   1_455  S
O39          C52   1.271       .  A
O39         Co47   1.970       .  S
O40         C573   1.317       .  A
O40         Co48   2.154   1_554  S
O41         C573   1.262       .  A
O41       Co1086   1.937       .  S
O42        C1092   1.292       .  A
O42         Co45   2.032   1_545  S
O43          C50   1.226       .  A
O43        Co828   1.923   1_545  S
O44          C51   1.289       .  A
O44        Co307   2.109   1_554  S
Co45       O1585   1.968       .  S
Co45        O550   2.018       .  S
Co45        O569   2.105   1_565  S
Co46       O1066   1.949       .  S
Co46        O558   2.011   1_655  S
Co46       O1081   1.989       .  S
Co46       O1349   2.068   1_654  S
Co47        O547   1.902   1_545  S
Co47        O552   1.972   1_545  S
Co47        O304   2.085       .  S
Co47       O1609   2.039       .  S
Co48        O288   2.052       .  S
Co48        O823   1.974       .  S
Co48        O309   2.074       .  S
O49        Co565   2.085       .  S
O49       Co1346   2.104       .  S
O49       Co1607   2.098       .  S
O49        Co308   2.049       .  S
C50         C205   1.482       .  S
C52        O1082   1.300       .  A
C52         C252   1.441       .  S
C53         O560   1.292   1_545  A
C53         O561   1.273       .  A
C53         C232   1.495       .  S
O54          C62   1.284       .  A
O54         Co74   2.043       .  S
O55          C63   1.246       .  A
O55         Co75   2.010       .  S
O56          C64   1.269       .  A
O56        Co336   1.937   1_554  S
O57          C65   1.299       .  A
O57        Co337   2.070       .  S
O58          C64   1.279       .  A
O58         Co75   1.991       .  S
O59          C65   1.260       .  A
O59         Co74   1.968       .  S
O60          C63   1.257       .  A
O60         Co77   2.049       .  S
O61          C62   1.281       .  A
O61         Co76   2.053       .  S
C63         C192   1.506       .  S
C64         C162   1.453       .  S
C65         C202   1.484       .  S
O66          C79   1.244       .  A
O66         Co74   1.965       .  S
O67          C80   1.267       .  A
O67         Co75   2.007       .  S
O68          C81   1.254       .  A
O68         Co76   2.007       .  S
O69          C82   1.280       .  A
O69         Co77   2.083       .  S
O70          C82   1.299       .  A
O70         Co75   2.080       .  S
O71          C81   1.246       .  A
O71         Co74   1.983       .  S
O72          C79   1.250       .  A
O72        Co337   1.959       .  S
O73         C340   1.252       .  A
O73         Co76   1.935       .  S
Co74         O78   2.093       .  S
Co75        O338   2.042   1_554  S
Co76        O316   1.967       .  S
Co76         O78   2.075       .  S
Co77        O317   1.925   1_554  S
Co77        O332   1.928   1_554  S
Co77        O338   2.191   1_554  S
O78        Co335   2.119       .  S
O78        Co337   2.139       .  S
C79         C172   1.434       .  S
C80         O333   1.259       .  A
C80         C212   1.484       .  S
C81         C182   1.500       .  S
O83          C91   1.269       .  A
O83       Co1143   1.984   1_455  S
O84          C92   1.285       .  A
O84       Co1144   2.019       .  S
O85          C93   1.248       .  A
O85        Co105   1.942       .  S
O86          C94   1.271       .  A
O86        Co106   1.996       .  S
O87          C93   1.249       .  A
O87        Co104   1.965   1_455  S
O88          C94   1.289       .  A
O88        Co103   2.110       .  S
O89          C92   1.266       .  A
O89        Co106   1.908       .  S
O90          C91   1.270       .  A
O90        Co105   2.004       .  S
C91         C185   1.489       .  S
C92         C245   1.446       .  S
C93         C155   1.442       .  S
O95         C108   1.244       .  A
O95        Co103   1.949       .  S
O96         C109   1.286       .  A
O96        Co104   2.014   1_455  S
O97         C110   1.286       .  A
O97        Co105   2.008       .  S
O98         C111   1.266       .  A
O98        Co106   1.997       .  S
O99         C111   1.270       .  A
O99       Co1144   1.998       .  S
O100       C1150   1.276       .  A
O100       Co103   1.873       .  S
O101        C108   1.259       .  A
O101       Co106   1.968       .  S
O102        C109   1.306       .  A
O102       Co105   2.113       .  S
Co103      O1123   1.924       .  S
Co103       O107   1.921       .  S
Co104      O1124   1.972       .  S
Co104      O1139   2.008       .  S
Co104      O1147   2.015       .  S
Co105      O1147   2.119   1_455  S
Co106       O107   2.015       .  S
O107      Co1144   2.072       .  S
O107      Co1145   2.048       .  S
C108        C142   1.461       .  S
C110       O1140   1.282       .  A
C110        C255   1.462       .  S
C111        C195   1.501       .  S
O112        C120   1.282       .  A
O112       Co652   2.095       .  S
O113        C121   1.242       .  A
O113       Co653   1.904   1_545  S
O114        C122   1.268       .  A
O114       Co134   1.975       .  S
O115        C123   1.286       .  A
O115       Co135   1.996       .  S
O116        C122   1.258       .  A
O116       Co133   1.912       .  S
O117        C123   1.267       .  A
O117       Co132   1.948       .  S
O118        C121   1.291       .  A
O118       Co135   2.105       .  S
O119        C120   1.263       .  A
O119       Co134   1.994       .  S
C121        C235   1.486       .  S
C122        C165   1.461       .  S
C123        C145   1.442       .  S
O124        C137   1.264       .  A
O124       Co132   1.824       .  S
O125        C138   1.257       .  A
O125       Co133   1.935       .  S
O126        C139   1.259       .  A
O126       Co134   2.012       .  S
O127        C140   1.275       .  A
O127       Co135   2.002       .  S
O128        C140   1.296       .  A
O128       Co653   2.123   1_545  S
O129        C139   1.255       .  A
O129       Co652   1.983       .  S
O130        C137   1.303       .  A
O130       Co135   2.099       .  S
O131        C138   1.259       .  A
O131       Co134   1.959       .  S
Co132       O632   2.088   1_545  S
Co132       O649   1.974   1_545  S
Co132       O656   1.876   1_545  S
Co133       O633   1.927       .  S
Co133       O648   2.080       .  S
Co133       O136   2.027       .  S
Co134       O136   2.060       .  S
Co135       O656   2.019   1_545  S
O136       Co652   1.941       .  S
O136       Co655   2.057       .  S
C137        C175   1.424       .  S
C138        C152   1.426       .  S
C139        C225   1.473       .  S
C141        C142   1.395       .  A
C141        C146   1.377       .  A
C141        H148   1.083       .  S
C142        C143   1.420       .  A
C143        C144   1.390       .  A
C143       Br150   1.915       .  S
C144        C145   1.392       .  A
C144        H149   1.084       .  S
C145        C146   1.413       .  A
C146       Br147   1.930       .  S
C151        C152   1.395       .  A
C151        C156   1.379       .  A
C151        H158   1.085       .  S
C152        C153   1.398       .  A
C153        C154   1.388       .  A
C153       Br160   1.918       .  S
C154        C155   1.405       .  A
C154        H159   1.084       .  S
C155        C156   1.405       .  A
C156       Br157   1.923       .  S
C161        C162   1.404       .  A
C161        C166   1.384       .  A
C161        H168   1.083       .  S
C162        C163   1.412       .  A
C163        C164   1.385       .  A
C163       Br170   1.901       .  S
C164        C165   1.392       .  A
C164        H169   1.084       .  S
C165        C166   1.402       .  A
C166       Br167   1.902       .  S
C171        C172   1.395       .  A
C171        C176   1.369       .  A
C171        H178   1.083       .  S
C172        C173   1.404       .  A
C173        C174   1.391       .  A
C173       Br180   1.912       .  S
C174        C175   1.400       .  A
C174        H179   1.084       .  S
C175        C176   1.394       .  A
C176       Br177   1.912       .  S
C181        C182   1.408       .  A
C181        C186   1.406       .  A
C181        H188   1.083       .  S
C182        C183   1.420       .  A
C183        C184   1.403       .  A
C183       Br190   1.923       .  S
C184        C185   1.405       .  A
C184        H189   1.084       .  S
C185        C186   1.413       .  A
C186       Br187   1.919       .  S
C191        C192   1.412       .  A
C191        C196   1.423       .  A
C191        H198   1.085       .  S
C192        C193   1.406       .  A
C193        C194   1.395       .  A
C193       Br200   1.889       .  S
C194        C195   1.395       .  A
C194        H199   1.086       .  S
C195        C196   1.419       .  A
C196       Br197   1.915       .  S
C201        C202   1.411       .  A
C201        C206   1.404       .  A
C201        H208   1.083       .  S
C202        C203   1.404       .  A
C203        C204   1.397       .  A
C203       Br210   1.915       .  S
C204        C205   1.412       .  A
C204        H209   1.085       .  S
C205        C206   1.398       .  A
C206       Br207   1.892       .  S
C211        C212   1.408       .  A
C211        C216   1.399       .  A
C211        H218   1.086       .  S
C212        C213   1.402       .  A
C213        C214   1.407       .  A
C213       Br220   1.917       .  S
C214        C215   1.418       .  A
C214        H219   1.082       .  S
C215        C216   1.405       .  A
C216       Br217   1.902       .  S
C221        C222   1.407       .  A
C221        C226   1.392       .  A
C221        H228   1.083       .  S
C222        C223   1.418       .  A
C223        C224   1.407       .  A
C223       Br230   1.921       .  S
C224        C225   1.405       .  A
C224        H229   1.084       .  S
C225        C226   1.401       .  A
C226       Br227   1.912       .  S
C231        C232   1.398       .  A
C231        C236   1.397       .  A
C231        H238   1.083       .  S
C232        C233   1.425       .  A
C233        C234   1.411       .  A
C233       Br240   1.920       .  S
C234        C235   1.402       .  A
C234        H239   1.083       .  S
C235        C236   1.419       .  A
C236       Br237   1.924       .  S
C241        C242   1.407       .  A
C241        C246   1.387       .  A
C241        H248   1.084       .  S
C242        C243   1.405       .  A
C243        C244   1.374       .  A
C243      Br1290   1.921       .  S
C244        C245   1.403       .  A
C244        H249   1.085       .  S
C245        C246   1.399       .  A
C246       Br247   1.909       .  S
Br250      C1283   1.928       .  S
C251        C256   1.399       .  A
C251       C1292   1.399       .  A
C251        H258   1.084       .  S
C252        C253   1.403       .  A
C252       C1291   1.393       .  A
C253        C254   1.390       .  A
C253       Br260   1.918       .  S
C254        C255   1.403       .  A
C254        H259   1.084       .  S
C255       C1296   1.418       .  A
C256       C1295   1.416       .  A
C256       Br257   1.922       .  S
C261        C262   1.531       .  S
C261        C267   1.560       .  S
C261        C265   1.531       .  S
C261        C380   1.566       .  S
C262        H269   1.087       .  S
C262        C263   1.374       .  D
C263        C264   1.613       .  S
C263        C322   1.564       .  S
C264        C268   1.608       .  S
C264        C266   1.621       .  S
C264        H270   1.109       .  S
C265        H271   1.087       .  S
C265        C266   1.374       .  D
C266        C296   1.556       .  S
C267        H272   1.085       .  S
C267        C268   1.373       .  D
C268        C354   1.585       .  S
C273        C274   1.545       .  S
C273        C279   1.543       .  S
C273        C277   1.539       .  S
C273        C400   1.580       .  S
C274        H281   1.086       .  S
C274        C275   1.381       .  D
C275        C276   1.609       .  S
C275        C369   1.574       .  S
C276        C280   1.610       .  S
C276        C278   1.601       .  S
C276        H282   1.110       .  S
C277        H283   1.081       .  S
C277        C278   1.373       .  D
C278        C311   1.550       .  S
C279        H284   1.077       .  S
C279        C280   1.376       .  D
C280        C342   1.574       .  S
O285        C293   1.263       .  A
O285      Co1865   2.023   1_455  S
O286        C294   1.252       .  A
O286      Co1346   1.949       .  S
O287       Co827   1.902   1_554  S
O288        C296   1.299       .  A
O289        C295   1.247       .  A
O289       Co306   1.972   1_455  S
O290        C296   1.308       .  A
O290       Co825   2.056       .  S
O291        C294   1.266       .  A
O291       Co308   1.949       .  S
O292        C293   1.241       .  A
O292       Co827   1.957       .  S
C293        C482   1.487       .  S
C294        C502   1.444       .  S
C295        C475   1.482       .  S
O297        C310   1.268       .  A
O297       Co305   1.909       .  S
O298        C311   1.268       .  A
O298       Co826   2.022   1_455  S
O299        C312   1.273       .  A
O299       Co307   1.999       .  S
O300        C833   1.295       .  A
O300       Co308   2.069       .  S
O301        C833   1.282       .  A
O301      Co1346   1.992       .  S
O302       C1352   1.267       .  A
O302       Co305   1.972       .  S
O303        C310   1.285       .  A
O303       Co568   2.063   1_545  S
O304        C311   1.287       .  A
Co305      O1845   2.002       .  S
Co305       O810   2.193   1_545  S
Co305       O829   2.065       .  S
Co306      O1326   1.939       .  S
Co306       O818   2.040   1_655  S
Co306      O1341   1.972       .  S
Co306      O1089   2.058   1_655  S
Co307       O807   1.897   1_546  S
Co307       O812   1.959   1_545  S
Co307      O1869   2.038   1_456  S
Co308       O563   2.049       .  S
O309       Co825   2.047       .  S
O309      Co1086   1.877   1_556  S
O309      Co1867   2.055       .  S
C310        C465   1.463       .  S
C312       O1342   1.263   1_455  A
C312        C512   1.449       .  S
C313        O820   1.305       .  A
C313        O821   1.276       .  A
C313        C492   1.501       .  S
O314        C322   1.274       .  A
O314       Co334   2.040       .  S
O315        C323   1.249       .  A
O315       Co335   2.027       .  S
O316        C324   1.278       .  A
O317        C325   1.251       .  A
O318        C324   1.281       .  A
O318       Co335   1.987       .  S
O319        C325   1.265       .  A
O319       Co334   1.996       .  S
O320        C323   1.267       .  A
O320       Co337   2.070       .  S
O321        C322   1.289       .  A
O321       Co336   2.086       .  S
C323        C452   1.515       .  S
C324        C422   1.460       .  S
C325        C462   1.471       .  S
O326        C339   1.243       .  A
O326       Co334   1.963       .  S
O327        C340   1.268       .  A
O327       Co335   2.007       .  S
O328        C341   1.258       .  A
O328       Co336   1.989       .  S
O329        C342   1.289       .  A
O329       Co337   2.059       .  S
O330        C342   1.297       .  A
O330       Co335   2.081       .  S
O331        C341   1.259       .  A
O331       Co334   2.010       .  S
O332        C339   1.246       .  A
O333       Co336   1.964   1_554  S
Co334       O338   2.108       .  S
Co336       O338   2.063       .  S
C339        C432   1.428       .  S
C340        C472   1.479       .  S
C341        C442   1.500       .  S
O343        C351   1.269       .  A
O343      Co1403   1.982   1_455  S
O344        C352   1.271       .  A
O344      Co1404   1.976       .  S
O345        C353   1.252       .  A
O345       Co365   1.947       .  S
O346        C354   1.286       .  A
O346       Co366   2.048       .  S
O347        C353   1.250       .  A
O347       Co364   1.969   1_455  S
O348        C354   1.286       .  A
O348       Co363   2.102       .  S
O349        C352   1.275       .  A
O349       Co366   1.948       .  S
O350        C351   1.270       .  A
O350       Co365   1.998       .  S
C351        C445   1.485       .  S
C352        C505   1.434       .  S
C353        C415   1.455       .  S
O355        C368   1.247       .  A
O355       Co363   1.964       .  S
O356        C369   1.286       .  A
O356       Co364   2.010   1_455  S
O357        C370   1.297       .  A
O357       Co365   2.053       .  S
O358        C371   1.274       .  A
O358       Co366   2.013       .  S
O359        C371   1.278       .  A
O359      Co1404   2.011       .  S
O360       C1410   1.272       .  A
O360       Co363   1.890       .  S
O361        C368   1.258       .  A
O361       Co366   1.958       .  S
O362        C369   1.310       .  A
O362       Co365   2.122       .  S
Co363      O1383   1.985       .  S
Co363       O367   1.965       .  S
Co364      O1384   1.973       .  S
Co364      O1399   2.002       .  S
Co364      O1407   2.010       .  S
Co365      O1407   2.124   1_455  S
Co366       O367   2.037       .  S
O367      Co1404   2.005       .  S
O367      Co1405   2.124       .  S
C368        C402   1.463       .  S
C370       O1400   1.272       .  A
C370        C515   1.468       .  S
C371        C455   1.516       .  S
O372        C380   1.292       .  A
O372       Co912   2.110       .  S
O373        C381   1.248       .  A
O373       Co913   1.937   1_545  S
O374        C382   1.259       .  A
O374       Co394   1.927       .  S
O375        C383   1.292       .  A
O375       Co395   2.019       .  S
O376        C382   1.312       .  A
O376       Co393   2.107       .  S
O377        C383   1.264       .  A
O377       Co392   1.942       .  S
O378        C381   1.289       .  A
O378       Co395   2.095       .  S
O379        C380   1.250       .  A
O379       Co394   1.950       .  S
C381        C495   1.488       .  S
C382        C425   1.442       .  S
C383        C405   1.449       .  S
O384        C397   1.265       .  A
O384       Co392   1.827       .  S
O385        C398   1.261       .  A
O385       Co393   1.988       .  S
O386        C399   1.272       .  A
O386       Co394   2.053       .  S
O387        C400   1.275       .  A
O387       Co395   1.985       .  S
O388        C400   1.294       .  A
O388       Co913   2.107   1_545  S
O389        C399   1.241       .  A
O389       Co912   1.942       .  S
O390        C397   1.301       .  A
O390       Co395   2.090       .  S
O391        C398   1.256       .  A
O391       Co394   1.950       .  S
Co392       O892   2.082   1_545  S
Co392       O909   1.967   1_545  S
Co392       O916   1.884   1_545  S
Co393       O893   1.998       .  S
Co393       O908   2.012       .  S
Co393       O396   2.008       .  S
Co394       O396   2.026       .  S
Co395       O916   2.008   1_545  S
O396       Co912   1.857       .  S
O396       Co915   2.091       .  S
C397        C435   1.420       .  S
C398        C412   1.483       .  S
C399        C485   1.479       .  S
C401        C402   1.396       .  A
C401        C406   1.376       .  A
C401        H408   1.084       .  S
C402        C403   1.419       .  A
C403        C404   1.394       .  A
C403       Br410   1.918       .  S
C404        C405   1.396       .  A
C404        H409   1.084       .  S
C405        C406   1.415       .  A
C406       Br407   1.932       .  S
C411        C412   1.412       .  A
C411        C416   1.382       .  A
C411        H418   1.090       .  S
C412        C413   1.414       .  A
C413        C414   1.398       .  A
C413       Br420   1.917       .  S
C414        C415   1.403       .  A
C414        H419   1.086       .  S
C415        C416   1.399       .  A
C416       Br417   1.934       .  S
C421        C422   1.406       .  A
C421        C426   1.395       .  A
C421        H428   1.086       .  S
C422        C423   1.411       .  A
C423        C424   1.371       .  A
C423       Br430   1.903       .  S
C424        C425   1.383       .  A
C424        H429   1.095       .  S
C425        C426   1.395       .  A
C426       Br427   1.894       .  S
C431        C432   1.395       .  A
C431        C436   1.370       .  A
C431        H438   1.084       .  S
C432        C433   1.401       .  A
C433        C434   1.388       .  A
C433       Br440   1.909       .  S
C434        C435   1.398       .  A
C434        H439   1.085       .  S
C435        C436   1.395       .  A
C436       Br437   1.909       .  S
C441        C442   1.409       .  A
C441        C446   1.402       .  A
C441        H448   1.084       .  S
C442        C443   1.419       .  A
C443        C444   1.402       .  A
C443       Br450   1.923       .  S
C444        C445   1.404       .  A
C444        H449   1.087       .  S
C445        C446   1.410       .  A
C446       Br447   1.920       .  S
C451        C452   1.412       .  A
C451        C456   1.430       .  A
C451        H458   1.081       .  S
C452        C453   1.410       .  A
C453        C454   1.397       .  A
C453       Br460   1.897       .  S
C454        C455   1.400       .  A
C454        H459   1.068       .  S
C455        C456   1.424       .  A
C456       Br457   1.914       .  S
C461        C462   1.406       .  A
C461        C466   1.396       .  A
C461        H468   1.084       .  S
C462        C463   1.417       .  A
C463        C464   1.387       .  A
C463       Br470   1.926       .  S
C464        C465   1.399       .  A
C464        H469   1.085       .  S
C465        C466   1.405       .  A
C466       Br467   1.907       .  S
C471        C472   1.414       .  A
C471        C476   1.395       .  A
C471        H478   1.085       .  S
C472        C473   1.402       .  A
C473        C474   1.408       .  A
C473       Br480   1.914       .  S
C474        C475   1.414       .  A
C474        H479   1.083       .  S
C475        C476   1.400       .  A
C476       Br477   1.912       .  S
C481        C482   1.395       .  A
C481        C486   1.394       .  A
C481        H488   1.084       .  S
C482        C483   1.426       .  A
C483        C484   1.405       .  A
C483       Br490   1.925       .  S
C484        C485   1.397       .  A
C484        H489   1.084       .  S
C485        C486   1.417       .  A
C486       Br487   1.913       .  S
C491        C492   1.406       .  A
C491        C496   1.407       .  A
C491        H498   1.083       .  S
C492        C493   1.425       .  A
C493        C494   1.406       .  A
C493       Br500   1.925       .  S
C494        C495   1.401       .  A
C494        H499   1.081       .  S
C495        C496   1.413       .  A
C496       Br497   1.918       .  S
C501        C502   1.398       .  A
C501        C506   1.387       .  A
C501        H508   1.083       .  S
C502        C503   1.417       .  A
C503        C504   1.369       .  A
C503      Br1550   1.926       .  S
C504        C505   1.388       .  A
C504        H509   1.084       .  S
C505        C506   1.405       .  A
C506       Br507   1.910       .  S
Br510      C1543   1.935       .  S
C511       C1552   1.403       .  A
C511        C516   1.393       .  A
C511        H518   1.084       .  S
C512       C1551   1.401       .  A
C512        C513   1.397       .  A
C513        C514   1.391       .  A
C513       Br520   1.917       .  S
C514        C515   1.411       .  A
C514        H519   1.084       .  S
C515       C1556   1.412       .  A
C516       C1555   1.412       .  A
C516       Br517   1.923       .  S
C521        C522   1.540       .  S
C521        C527   1.536       .  S
C521        C525   1.535       .  S
C521        C640   1.564       .  S
C522        H529   1.087       .  S
C522        C523   1.378       .  D
C523        C524   1.594       .  S
C523        C582   1.551       .  S
C524        C528   1.617       .  S
C524        C526   1.616       .  S
C524        H530   1.110       .  S
C525        H531   1.086       .  S
C525        C526   1.373       .  D
C526        C556   1.550       .  S
C527        H532   1.086       .  S
C527        C528   1.374       .  D
C528        C614   1.581       .  S
C533        C534   1.550       .  S
C533        C539   1.563       .  S
C533        C537   1.543       .  S
C533        C660   1.605       .  S
C534        H541   1.085       .  S
C534        C535   1.382       .  D
C535        C536   1.621       .  S
C535        C629   1.593       .  S
C536        C540   1.609       .  S
C536        C538   1.586       .  S
C536        H542   1.110       .  S
C537        H543   1.065       .  S
C537        C538   1.376       .  D
C538        C571   1.544       .  S
C539        H544   1.085       .  S
C539        C540   1.387       .  D
C540        C602   1.583       .  S
O545        C553   1.238       .  A
O545      Co1085   1.955   1_455  S
O546        C554   1.249       .  A
O546      Co1606   1.943   1_565  S
O547        C815   1.237       .  A
O548        C556   1.305       .  A
O548       Co828   2.084       .  S
O549        C555   1.286       .  A
O549       Co566   2.080   1_465  S
O550        C556   1.279       .  A
O551        C554   1.268       .  A
O551       Co568   1.970   1_554  S
O552        C553   1.241       .  A
C553        C742   1.465       .  S
C554        C762   1.444       .  S
C555        O807   1.244       .  A
C555        C735   1.480       .  S
O557        C570   1.210       .  A
O557       Co565   1.893       .  S
O558        C571   1.263       .  A
O559        C572   1.267       .  A
O559       Co567   1.950       .  S
O560       Co568   2.057   1_554  S
O561      Co1606   1.978       .  S
O562       C1612   1.240       .  A
O562       Co565   1.937       .  S
O563        C570   1.239       .  A
O564        C571   1.284       .  A
O564       Co827   2.086   1_554  S
Co565      O1065   2.011       .  S
Co566      O1586   1.965   1_545  S
Co566      O1601   1.975       .  S
Co566      O1869   2.066       .  S
Co567       O824   2.046       .  S
Co567      O1089   2.099       .  S
Co568       O808   1.980       .  S
Co568       O829   2.032   1_565  S
O569      Co1866   2.059       .  S
O569      Co1087   2.110       .  S
O569       Co828   2.087   1_545  S
C570        C725   1.445       .  S
C572       O1602   1.291       .  A
C572        C772   1.443       .  S
C573        C752   1.514       .  S
O574        C582   1.278       .  A
O574       Co594   2.041       .  S
O575        C583   1.264       .  A
O575       Co595   2.039       .  S
O576        C584   1.270       .  A
O576       Co856   1.972   1_554  S
O577        C585   1.247       .  A
O577       Co857   1.910       .  S
O578        C584   1.253       .  A
O578       Co595   1.901       .  S
O579        C585   1.264       .  A
O579       Co594   1.974       .  S
O580        C583   1.256       .  A
O580       Co597   2.039   1_554  S
O581        C582   1.282       .  A
O581       Co596   2.064       .  S
C583        C712   1.532       .  S
C584        C682   1.445       .  S
C585        C722   1.450       .  S
O586        C599   1.242       .  A
O586       Co594   1.960       .  S
O587        C600   1.255       .  A
O587       Co595   1.969       .  S
O588        C601   1.267       .  A
O588       Co596   2.023       .  S
O589        C602   1.288       .  A
O589       Co597   2.066   1_554  S
O590        C602   1.278       .  A
O590       Co595   2.091       .  S
O591        C601   1.251       .  A
O591       Co594   1.983       .  S
O592        C599   1.248       .  A
O592       Co857   1.962       .  S
O593        C860   1.254       .  A
O593       Co596   1.952       .  S
Co594       O598   2.089       .  S
Co595       O858   2.099   1_554  S
Co596       O836   1.958       .  S
Co596       O598   2.053       .  S
Co597       O837   1.966       .  S
Co597       O852   2.000       .  S
Co597       O858   2.058       .  S
O598       Co855   2.021       .  S
O598       Co857   2.205       .  S
C599        C692   1.442       .  S
C600        O853   1.264       .  A
C600        C732   1.480       .  S
C601        C702   1.501       .  S
O603        C611   1.262       .  A
O603      Co1663   1.969   1_455  S
O604        C612   1.273       .  A
O604      Co1664   1.973       .  S
O605        C613   1.248       .  A
O605       Co625   1.923       .  S
O606        C614   1.283       .  A
O606       Co626   2.023       .  S
O607        C613   1.248       .  A
O607       Co624   1.952       .  S
O608        C614   1.294       .  A
O608       Co623   2.121       .  S
O609        C612   1.283       .  A
O609       Co626   1.965       .  S
O610        C611   1.276       .  A
O610       Co625   2.026       .  S
C611        C705   1.491       .  S
C612        C765   1.444       .  S
C613        C675   1.436       .  S
O615        C628   1.241       .  A
O615       Co623   1.922       .  S
O616        C629   1.291       .  A
O616       Co624   2.026       .  S
O617        C630   1.292       .  A
O617       Co625   2.029       .  S
O618        C631   1.267       .  A
O618       Co626   1.997       .  S
O619        C631   1.283       .  A
O619      Co1664   2.025       .  S
O620       C1670   1.280       .  A
O620       Co623   1.900       .  S
O621        C628   1.264       .  A
O621       Co626   1.973       .  S
O622        C629   1.314       .  A
O622       Co625   2.137       .  S
Co623      O1643   1.942       .  S
Co623       O627   1.947       .  S
Co624      O1644   1.991   1_455  S
Co624      O1659   2.001   1_455  S
Co624      O1667   2.020   1_455  S
Co625      O1667   2.123   1_455  S
Co626       O627   2.010       .  S
O627      Co1664   2.088       .  S
O627      Co1665   2.042       .  S
C628        C662   1.447       .  S
C630       O1660   1.281       .  A
C630        C775   1.467       .  S
C631        C715   1.528       .  S
O632        C640   1.287       .  A
O633        C641   1.250       .  A
O634        C642   1.261       .  A
O634       Co654   1.942       .  S
O635        C643   1.240       .  A
O635       Co655   1.864       .  S
O636        C642   1.261       .  A
O636       Co653   1.935       .  S
O637        C643   1.269       .  A
O637       Co652   1.987       .  S
O638        C641   1.281       .  A
O638       Co655   2.080       .  S
O639        C640   1.267       .  A
O639       Co654   1.980       .  S
C641        C755   1.495       .  S
C642        C685   1.434       .  S
C643        C665   1.443       .  S
O644        C657   1.268       .  A
O644       Co652   1.855       .  S
O645        C658   1.247       .  A
O645       Co653   1.920       .  S
O646        C659   1.246       .  A
O646       Co654   1.978       .  S
O647        C660   1.277       .  A
O647       Co655   2.045       .  S
O648        C660   1.281       .  A
O649        C659   1.247       .  A
O650        C657   1.300       .  A
O650       Co655   2.070       .  S
O651        C658   1.252       .  A
O651       Co654   1.963       .  S
Co653       O656   2.087       .  S
Co654       O656   2.061       .  S
C657        C695   1.431       .  S
C658        C672   1.420       .  S
C659        C745   1.452       .  S
C661        C662   1.385       .  A
C661        C666   1.364       .  A
C661        H668   1.084       .  S
C662        C663   1.418       .  A
C663        C664   1.389       .  A
C663       Br670   1.909       .  S
C664        C665   1.390       .  A
C664        H669   1.084       .  S
C665        C666   1.430       .  A
C666       Br667   1.944       .  S
C671        C672   1.393       .  A
C671        C676   1.375       .  A
C671        H678   1.086       .  S
C672        C673   1.394       .  A
C673        C674   1.384       .  A
C673       Br680   1.916       .  S
C674        C675   1.406       .  A
C674        H679   1.084       .  S
C675        C676   1.403       .  A
C676       Br677   1.926       .  S
C681        C682   1.402       .  A
C681        C686   1.394       .  A
C681        H688   1.085       .  S
C682        C683   1.426       .  A
C683        C684   1.360       .  A
C683       Br690   1.946       .  S
C684        C685   1.386       .  A
C684        H689   1.090       .  S
C685        C686   1.402       .  A
C686       Br687   1.910       .  S
C691        C692   1.394       .  A
C691        C696   1.374       .  A
C691        H698   1.083       .  S
C692        C693   1.402       .  A
C693        C694   1.392       .  A
C693       Br700   1.904       .  S
C694        C695   1.398       .  A
C694        H699   1.085       .  S
C695        C696   1.399       .  A
C696       Br697   1.909       .  S
C701        C702   1.406       .  A
C701        C706   1.407       .  A
C701        H708   1.085       .  S
C702        C703   1.425       .  A
C703        C704   1.397       .  A
C703       Br710   1.928       .  S
C704        C705   1.396       .  A
C704        H709   1.094       .  S
C705        C706   1.416       .  A
C706       Br707   1.919       .  S
C711        C712   1.419       .  A
C711        C716   1.432       .  A
C711        H718   1.083       .  S
C712        C713   1.412       .  A
C713        C714   1.408       .  A
C713       Br720   1.912       .  S
C714        C715   1.408       .  A
C714        H719   1.078       .  S
C715        C716   1.423       .  A
C716       Br717   1.918       .  S
C721        C722   1.397       .  A
C721        C726   1.375       .  A
C721        H728   1.085       .  S
C722        C723   1.415       .  A
C723        C724   1.386       .  A
C723       Br730   1.925       .  S
C724        C725   1.394       .  A
C724        H729   1.085       .  S
C725        C726   1.412       .  A
C726       Br727   1.927       .  S
C731        C732   1.403       .  A
C731        C736   1.396       .  A
C731        H738   1.085       .  S
C732        C733   1.403       .  A
C733        C734   1.406       .  A
C733       Br740   1.921       .  S
C734        C735   1.416       .  A
C734        H739   1.079       .  S
C735        C736   1.408       .  A
C736       Br737   1.902       .  S
C741        C742   1.403       .  A
C741        C746   1.386       .  A
C741        H748   1.084       .  S
C742        C743   1.416       .  A
C743        C744   1.393       .  A
C743       Br750   1.925       .  S
C744        C745   1.397       .  A
C744        H749   1.084       .  S
C745        C746   1.405       .  A
C746       Br747   1.922       .  S
C751        C752   1.405       .  A
C751        C756   1.409       .  A
C751        H758   1.080       .  S
C752        C753   1.429       .  A
C753        C754   1.413       .  A
C753       Br760   1.924       .  S
C754        C755   1.403       .  A
C754        H759   1.084       .  S
C755        C756   1.414       .  A
C756       Br757   1.917       .  S
C761        C762   1.394       .  A
C761        C766   1.385       .  A
C761        H768   1.084       .  S
C762        C763   1.420       .  A
C763        C764   1.369       .  A
C763      Br1810   1.931       .  S
C764        C765   1.389       .  A
C764        H769   1.085       .  S
C765        C766   1.411       .  A
C766       Br767   1.903       .  S
Br770      C1803   1.929       .  S
C771       C1812   1.403       .  A
C771        C776   1.404       .  A
C771        H778   1.084       .  S
C772       C1811   1.396       .  A
C772        C773   1.405       .  A
C773        C774   1.386       .  A
C773       Br780   1.922       .  S
C774        C775   1.403       .  A
C774        H779   1.083       .  S
C775       C1816   1.419       .  A
C776       C1815   1.420       .  A
C776       Br777   1.924       .  S
C781        C782   1.535       .  S
C781        C787   1.539       .  S
C781        C785   1.544       .  S
C781        C900   1.572       .  S
C782        H789   1.087       .  S
C782        C783   1.372       .  D
C783        C784   1.601       .  S
C783        C842   1.557       .  S
C784        C788   1.632       .  S
C784        C786   1.637       .  S
C784        H790   1.109       .  S
C785        H791   1.086       .  S
C785        C786   1.382       .  D
C786        C816   1.587       .  S
C787        H792   1.086       .  S
C787        C788   1.374       .  D
C788        C874   1.596       .  S
C793        C794   1.530       .  S
C793        C799   1.538       .  S
C793        C797   1.534       .  S
C793        C920   1.554       .  S
C794        H801   1.086       .  S
C794        C795   1.372       .  D
C795        C796   1.585       .  S
C795        C889   1.531       .  S
C796        C800   1.598       .  S
C796        C798   1.603       .  S
C796        H802   1.110       .  S
C797        H803   1.087       .  S
C797        C798   1.370       .  D
C798        C831   1.542       .  S
C799        H804   1.076       .  S
C799        C800   1.375       .  D
C800        C862   1.554       .  S
O805        C813   1.261   1_545  A
O805      Co1345   2.017   1_455  S
O806        C814   1.236       .  A
O806      Co1866   1.951   1_565  S
O808        C816   1.278       .  A
O809        C815   1.281       .  A
O809       Co826   2.075   1_465  S
O810        C816   1.316       .  A
O811        C814   1.250       .  A
O811       Co828   1.984       .  S
O812        C813   1.242       .  A
C813       C1002   1.487       .  S
C814       C1022   1.438       .  S
C815        C995   1.487       .  S
O817        C830   1.245       .  A
O817       Co825   1.967       .  S
O818        C831   1.275       .  A
O819        C832   1.276       .  A
O819       Co827   2.022       .  S
O820       Co828   2.105   1_545  S
O821      Co1866   1.970       .  S
O822       C1872   1.291       .  A
O822       Co825   2.020       .  S
O823        C830   1.267       .  A
O824        C831   1.275       .  A
Co825      O1325   2.003       .  S
Co826      O1846   1.942   1_545  S
Co826      O1861   1.972       .  S
Co826      O1609   2.055   1_655  S
Co827      O1349   2.037       .  S
O829      Co1606   2.058   1_556  S
O829      Co1347   2.036       .  S
C830        C985   1.452       .  S
C832       O1862   1.267       .  A
C832       C1032   1.465       .  S
C833       C1012   1.504       .  S
O834        C842   1.275       .  A
O834       Co854   2.065       .  S
O835        C843   1.245       .  A
O835       Co855   2.009       .  S
O836        C844   1.272       .  A
O837        C845   1.256       .  A
O838        C844   1.282       .  A
O838       Co855   1.988       .  S
O839        C845   1.260       .  A
O839       Co854   1.952       .  S
O840        C843   1.265       .  A
O840       Co857   2.092       .  S
O841        C842   1.271       .  A
O841       Co856   2.035       .  S
C843        C972   1.528       .  S
C844        C942   1.454       .  S
C845        C982   1.456       .  S
O846        C859   1.277       .  A
O846       Co854   1.996       .  S
O847        C860   1.267       .  A
O847       Co855   2.018       .  S
O848        C861   1.263       .  A
O848       Co856   1.969       .  S
O849        C862   1.274       .  A
O849       Co857   2.046       .  S
O850        C862   1.298       .  A
O850       Co855   2.057       .  S
O851        C861   1.266       .  A
O851       Co854   1.999       .  S
O852        C859   1.282       .  A
O853       Co856   2.006   1_554  S
Co854       O858   2.064       .  S
Co856       O858   2.106       .  S
C859        C952   1.485       .  S
C860        C992   1.492       .  S
C861        C962   1.486       .  S
O863        C871   1.260       .  A
O863      Co1923   1.935   1_455  S
O864        C872   1.273       .  A
O864      Co1924   1.977       .  S
O865        C873   1.270       .  A
O865       Co885   2.013       .  S
O866        C874   1.292       .  A
O866       Co886   2.050       .  S
O867        C873   1.238       .  A
O867       Co884   1.948   1_455  S
O868        C874   1.293       .  A
O868       Co883   2.120       .  S
O869        C872   1.280       .  A
O869       Co886   1.948       .  S
O870        C871   1.307       .  A
O870       Co885   2.114       .  S
C871        C965   1.488       .  S
C872       C1025   1.434       .  S
C873        C935   1.446       .  S
O875        C888   1.241       .  A
O875       Co883   1.932       .  S
O876        C889   1.298       .  A
O876       Co884   2.035   1_455  S
O877        C890   1.307       .  A
O877       Co885   2.113       .  S
O878        C891   1.271       .  A
O878       Co886   2.004       .  S
O879        C891   1.280       .  A
O879      Co1924   2.018       .  S
O880       C1930   1.279       .  A
O880       Co883   1.871       .  S
O881        C888   1.257       .  A
O881       Co886   1.970       .  S
O882        C889   1.301       .  A
O882       Co885   2.014       .  S
Co883      O1903   1.932       .  S
Co883       O887   1.905       .  S
Co884      O1904   1.985       .  S
Co884      O1919   2.005       .  S
Co884      O1927   2.063       .  S
Co885      O1927   2.060   1_455  S
Co886       O887   2.030       .  S
O887      Co1924   2.086       .  S
O887      Co1925   2.067       .  S
C888        C922   1.437       .  S
C890       O1920   1.273       .  A
C890       C1035   1.488       .  S
C891        C975   1.518       .  S
O892        C900   1.285       .  A
O893        C901   1.267       .  A
O894        C902   1.273       .  A
O894       Co914   1.984       .  S
O895        C903   1.269       .  A
O895       Co915   1.973       .  S
O896        C902   1.259       .  A
O896       Co913   1.915       .  S
O897        C903   1.255       .  A
O897       Co912   1.926       .  S
O898        C901   1.262       .  A
O898       Co915   2.046       .  S
O899        C900   1.268       .  A
O899       Co914   1.994       .  S
C901       C1015   1.500       .  S
C902        C945   1.456       .  S
C903        C925   1.426       .  S
O904        C917   1.282       .  A
O904       Co912   1.869       .  S
O905        C918   1.249       .  A
O905       Co913   1.938       .  S
O906        C919   1.257       .  A
O906       Co914   2.010       .  S
O907        C920   1.300       .  A
O907       Co915   2.024       .  S
O908        C920   1.294       .  A
O909        C919   1.245       .  A
O910        C917   1.320       .  A
O910       Co915   2.134       .  S
O911        C918   1.255       .  A
O911       Co914   1.967       .  S
Co913       O916   2.081       .  S
Co914       O916   2.056       .  S
C917        C955   1.493       .  S
C918        C932   1.430       .  S
C919       C1005   1.474       .  S
C921        C922   1.395       .  A
C921        C926   1.377       .  A
C921        H928   1.085       .  S
C922        C923   1.412       .  A
C923        C924   1.383       .  A
C923       Br930   1.920       .  S
C924        C925   1.391       .  A
C924        H929   1.085       .  S
C925        C926   1.398       .  A
C926       Br927   1.906       .  S
C931        C932   1.397       .  A
C931        C936   1.386       .  A
C931        H938   1.085       .  S
C932        C933   1.397       .  A
C933        C934   1.388       .  A
C933       Br940   1.918       .  S
C934        C935   1.405       .  A
C934        H939   1.084       .  S
C935        C936   1.403       .  A
C936       Br937   1.919       .  S
C941        C942   1.393       .  A
C941        C946   1.383       .  A
C941        H948   1.084       .  S
C942        C943   1.403       .  A
C943        C944   1.379       .  A
C943       Br950   1.869       .  S
C944        C945   1.389       .  A
C944        H949   1.084       .  S
C945        C946   1.405       .  A
C946       Br947   1.883       .  S
C951        C952   1.411       .  A
C951        C956   1.407       .  A
C951        H958   1.084       .  S
C952        C953   1.406       .  A
C953        C954   1.402       .  A
C953       Br960   1.915       .  S
C954        C955   1.409       .  A
C954        H959   1.083       .  S
C955        C956   1.413       .  A
C956       Br957   1.920       .  S
C961        C962   1.403       .  A
C961        C966   1.396       .  A
C961        H968   1.083       .  S
C962        C963   1.414       .  A
C963        C964   1.403       .  A
C963       Br970   1.921       .  S
C964        C965   1.405       .  A
C964        H969   1.080       .  S
C965        C966   1.417       .  A
C966       Br967   1.923       .  S
C971        C972   1.415       .  A
C971        C976   1.425       .  A
C971        H978   1.083       .  S
C972        C973   1.425       .  A
C973        C974   1.411       .  A
C973       Br980   1.909       .  S
C974        C975   1.403       .  A
C974        H979   1.084       .  S
C975        C976   1.420       .  A
C976       Br977   1.917       .  S
C981        C982   1.402       .  A
C981        C986   1.383       .  A
C981        H988   1.084       .  S
C982        C983   1.410       .  A
C983        C984   1.383       .  A
C983       Br990   1.918       .  S
C984        C985   1.397       .  A
C984        H989   1.084       .  S
C985        C986   1.408       .  A
C986       Br987   1.914       .  S
C991        C992   1.411       .  A
C991        C996   1.398       .  A
C991        H998   1.086       .  S
C992        C993   1.402       .  A
C993        C994   1.410       .  A
C993      Br1000   1.917       .  S
C994        C995   1.418       .  A
C994        H999   1.082       .  S
C995        C996   1.407       .  A
C996       Br997   1.914       .  S
C1001      C1002   1.401       .  A
C1001      C1006   1.395       .  A
C1001      H1008   1.083   1_565  S
C1002      C1003   1.427       .  A
C1003      C1004   1.402       .  A
C1003     Br1010   1.926       .  S
C1004      C1005   1.397       .  A
C1004      H1009   1.084       .  S
C1005      C1006   1.411       .  A
C1006     Br1007   1.920   1_565  S
C1011      C1012   1.406       .  A
C1011      C1016   1.407       .  A
C1011      H1018   1.085       .  S
C1012      C1013   1.422       .  A
C1013      C1014   1.410       .  A
C1013     Br1020   1.919       .  S
C1014      C1015   1.405       .  A
C1014      H1019   1.085       .  S
C1015      C1016   1.415       .  A
C1016     Br1017   1.915       .  S
C1021      C1022   1.397       .  A
C1021      C1026   1.391       .  A
C1021      H1028   1.084       .  S
C1022      C1023   1.418       .  A
C1023      C1024   1.363       .  A
C1023     Br2070   1.933       .  S
C1024      C1025   1.387       .  A
C1024      H1029   1.085       .  S
C1025      C1026   1.407       .  A
C1026     Br1027   1.910       .  S
Br1030     C2063   1.930       .  S
C1031      C2072   1.399       .  A
C1031      C1036   1.395       .  A
C1031      H1038   1.084       .  S
C1032      C2071   1.402       .  A
C1032      C1033   1.400       .  A
C1033      C1034   1.397       .  A
C1033     Br1040   1.918       .  S
C1034      C1035   1.413       .  A
C1034      H1039   1.083       .  S
C1035      C2076   1.416       .  A
C1036      C2075   1.417       .  A
C1036     Br1037   1.922       .  S
C1041      C1042   1.538       .  S
C1041      C1047   1.563       .  S
C1041      C1045   1.528       .  S
C1041      C1160   1.575       .  S
C1042      H1049   1.087       .  S
C1042      C1043   1.379       .  D
C1043      C1044   1.604       .  S
C1043      C1102   1.558       .  S
C1044      C1048   1.627       .  S
C1044      C1046   1.617       .  S
C1044      H1050   1.110       .  S
C1045      H1051   1.087       .  S
C1045      C1046   1.369       .  D
C1046      C1076   1.547       .  S
C1047      H1052   1.085       .  S
C1047      C1048   1.379       .  D
C1048      C1134   1.614       .  S
C1053      C1054   1.538       .  S
C1053      C1059   1.554       .  S
C1053      C1057   1.537       .  S
C1053      C1180   1.581       .  S
C1054      H1061   1.085       .  S
C1054      C1055   1.377       .  D
C1055      C1056   1.601       .  S
C1055      C1149   1.559       .  S
C1056      C1060   1.601       .  S
C1056      C1058   1.622       .  S
C1056      H1062   1.110       .  S
C1057      H1063   1.082       .  S
C1057      C1058   1.372       .  D
C1058      C1091   1.572       .  S
C1059      H1064   1.080       .  S
C1059      C1060   1.383       .  D
C1060      C1122   1.569       .  S
O1065      C1073   1.260       .  A
O1066      C1074   1.252       .  A
O1067      C1335   1.236       .  A
O1067     Co1607   1.906       .  S
O1068      C1076   1.307       .  A
O1068     Co1348   2.085       .  S
O1069      C1075   1.241       .  A
O1069     Co1086   1.942       .  S
O1070      C1076   1.281       .  A
O1070     Co1605   2.021       .  S
O1071      C1074   1.267       .  A
O1071     Co1088   1.965   1_554  S
O1072      C1073   1.238       .  A
O1072     Co1607   1.951       .  S
C1073      C1262   1.482       .  S
C1074      C1282   1.443       .  S
C1075      O1327   1.267       .  A
C1075      C1255   1.466       .  S
O1077      C1090   1.251       .  A
O1077     Co1085   2.004   1_545  S
O1078      C1091   1.265       .  A
O1078     Co1606   2.037       .  S
O1079      C1092   1.266       .  A
O1079     Co1087   1.957       .  S
O1080      C1613   1.285       .  A
O1080     Co1088   2.041   1_554  S
O1081      C1613   1.274       .  A
O1082     Co1085   2.038   1_445  S
O1083      C1090   1.247       .  A
O1083     Co1868   1.996   1_545  S
O1084      C1091   1.289       .  A
O1084     Co1347   2.107   1_554  S
Co1085     O1590   2.036       .  S
Co1085     O1609   2.041   1_665  S
Co1086     O1598   2.069       .  S
Co1087     O1587   1.993   1_545  S
Co1087     O1592   1.988   1_545  S
Co1087     O1344   2.053       .  S
Co1088     O1328   1.950       .  S
Co1088     O1863   2.064       .  S
Co1088     O1349   2.017   1_655  S
O1089     Co1605   2.119   1_455  S
O1089     Co1348   2.063   1_455  S
C1090      C1245   1.471       .  S
C1092      C1292   1.449       .  S
C1093      O1600   1.290       .  A
C1093      O1601   1.268       .  A
C1093      C1272   1.495       .  S
O1094      C1102   1.272       .  A
O1094     Co1114   2.026       .  S
O1095      C1103   1.245       .  A
O1095     Co1115   2.018       .  S
O1096      C1104   1.277       .  A
O1096     Co1376   1.949   1_554  S
O1097      C1105   1.251       .  A
O1097     Co1377   1.924       .  S
O1098      C1104   1.290       .  A
O1098     Co1115   2.017       .  S
O1099      C1105   1.258       .  A
O1099     Co1114   1.975       .  S
O1100      C1103   1.271       .  A
O1100     Co1117   2.082       .  S
O1101      C1102   1.290       .  A
O1101     Co1116   2.093       .  S
C1103      C1232   1.517       .  S
C1104      C1202   1.461       .  S
C1105      C1242   1.461       .  S
O1106      C1119   1.248       .  A
O1106     Co1114   1.975       .  S
O1107      C1120   1.264       .  A
O1107     Co1115   2.000       .  S
O1108      C1121   1.262       .  A
O1108     Co1116   2.025       .  S
O1109      C1122   1.280       .  A
O1109     Co1117   2.035       .  S
O1110      C1122   1.302       .  A
O1110     Co1115   2.094       .  S
O1111      C1121   1.248       .  A
O1111     Co1114   1.987       .  S
O1112      C1119   1.246       .  A
O1112     Co1377   1.922       .  S
O1113      C1380   1.258       .  A
O1113     Co1116   1.967       .  S
Co1114     O1118   2.117       .  S
Co1115     O1378   2.124   1_554  S
Co1116     O1356   1.971       .  S
Co1116     O1118   2.072       .  S
Co1117     O1357   2.034   1_554  S
Co1117     O1372   1.964   1_554  S
Co1117     O1378   2.124   1_554  S
O1118     Co1375   2.048       .  S
O1118     Co1377   2.176       .  S
C1119      C1212   1.429       .  S
C1120      O1373   1.250       .  A
C1120      C1252   1.467       .  S
C1121      C1222   1.507       .  S
O1123      C1131   1.256       .  A
O1124      C1132   1.271       .  A
O1125      C1133   1.268       .  A
O1125     Co1145   1.985       .  S
O1126      C1134   1.292       .  A
O1126     Co1146   2.064       .  S
O1127      C1133   1.241       .  A
O1127     Co1144   1.948       .  S
O1128      C1134   1.297       .  A
O1128     Co1143   2.135       .  S
O1129      C1132   1.277       .  A
O1129     Co1146   1.952       .  S
O1130      C1131   1.316       .  A
O1130     Co1145   2.148       .  S
C1131      C1225   1.508       .  S
C1132      C1285   1.433       .  S
C1133      C1195   1.441       .  S
O1135      C1148   1.246       .  A
O1135     Co1143   1.953       .  S
O1136      C1149   1.305       .  A
O1136     Co1144   2.060       .  S
O1137      C1150   1.300       .  A
O1137     Co1145   2.088       .  S
O1138      C1151   1.276       .  A
O1138     Co1146   2.024       .  S
O1139      C1151   1.277       .  A
O1140     Co1143   1.917   1_455  S
O1141      C1148   1.260       .  A
O1141     Co1146   1.959       .  S
O1142      C1149   1.305       .  A
O1142     Co1145   2.033       .  S
Co1143     O1147   1.976       .  S
Co1146     O1147   2.040       .  S
C1148      C1182   1.459       .  S
C1150      C1295   1.475       .  S
C1151      C1235   1.517       .  S
O1152      C1160   1.290       .  A
O1152     Co1692   2.112       .  S
O1153      C1161   1.245       .  A
O1153     Co1693   1.900   1_545  S
O1154      C1162   1.259       .  A
O1154     Co1174   1.954       .  S
O1155      C1163   1.241       .  A
O1155     Co1175   1.870       .  S
O1156      C1162   1.278       .  A
O1156     Co1173   1.992       .  S
O1157      C1163   1.272       .  A
O1157     Co1172   1.997       .  S
O1158      C1161   1.281       .  A
O1158     Co1175   2.079       .  S
O1159      C1160   1.255       .  A
O1159     Co1174   1.965       .  S
C1161      C1275   1.480       .  S
C1162      C1205   1.435       .  S
C1163      C1185   1.448       .  S
O1164      C1177   1.268       .  A
O1164     Co1172   1.854       .  S
O1165      C1178   1.251       .  A
O1165     Co1173   1.923       .  S
O1166      C1179   1.275       .  A
O1166     Co1174   2.056       .  S
O1167      C1180   1.273       .  A
O1167     Co1175   2.027       .  S
O1168      C1180   1.275       .  A
O1168     Co1693   2.059   1_545  S
O1169      C1179   1.247       .  A
O1169     Co1692   1.942       .  S
O1170      C1177   1.298       .  A
O1170     Co1175   2.062       .  S
O1171      C1178   1.266       .  A
O1171     Co1174   1.993       .  S
Co1172     O1672   2.090   1_545  S
Co1172     O1689   1.976   1_545  S
Co1172     O1696   1.935   1_545  S
Co1173     O1673   1.957       .  S
Co1173     O1688   2.066       .  S
Co1173     O1176   2.043       .  S
Co1174     O1176   2.053       .  S
Co1175     O1696   2.061   1_545  S
O1176     Co1692   1.864       .  S
O1176     Co1695   2.030       .  S
C1177      C1215   1.424       .  S
C1178      C1192   1.462       .  S
C1179      C1265   1.476       .  S
C1181      C1182   1.390       .  A
C1181      C1186   1.368       .  A
C1181      H1188   1.084       .  S
C1182      C1183   1.418       .  A
C1183      C1184   1.392       .  A
C1183     Br1190   1.907       .  S
C1184      C1185   1.391       .  A
C1184      H1189   1.084       .  S
C1185      C1186   1.428       .  A
C1186     Br1187   1.944       .  S
C1191      C1192   1.410       .  A
C1191      C1196   1.381       .  A
C1191      H1198   1.082       .  S
C1192      C1193   1.414       .  A
C1193      C1194   1.387       .  A
C1193     Br1200   1.925       .  S
C1194      C1195   1.401       .  A
C1194      H1199   1.083       .  S
C1195      C1196   1.395       .  A
C1196     Br1197   1.923       .  S
C1201      C1202   1.408       .  A
C1201      C1206   1.388       .  A
C1201      H1208   1.084       .  S
C1202      C1203   1.410       .  A
C1203      C1204   1.379       .  A
C1203     Br1210   1.901       .  S
C1204      C1205   1.390       .  A
C1204      H1209   1.086       .  S
C1205      C1206   1.390       .  A
C1206     Br1207   1.895       .  S
C1211      C1212   1.394       .  A
C1211      C1216   1.368       .  A
C1211      H1218   1.085       .  S
C1212      C1213   1.405       .  A
C1213      C1214   1.390       .  A
C1213     Br1220   1.909       .  S
C1214      C1215   1.396       .  A
C1214      H1219   1.084       .  S
C1215      C1216   1.396       .  A
C1216     Br1217   1.912       .  S
C1221      C1222   1.403       .  A
C1221      C1226   1.406       .  A
C1221      H1228   1.083       .  S
C1222      C1223   1.425       .  A
C1223      C1224   1.406       .  A
C1223     Br1230   1.924       .  S
C1224      C1225   1.402       .  A
C1224      H1229   1.080       .  S
C1225      C1226   1.426       .  A
C1226     Br1227   1.925       .  S
C1231      C1232   1.410       .  A
C1231      C1236   1.428       .  A
C1231      H1238   1.082       .  S
C1232      C1233   1.414       .  A
C1233      C1234   1.403       .  A
C1233     Br1240   1.906       .  S
C1234      C1235   1.401       .  A
C1234      H1239   1.078       .  S
C1235      C1236   1.425       .  A
C1236     Br1237   1.914       .  S
C1241      C1242   1.404       .  A
C1241      C1246   1.394       .  A
C1241      H1248   1.084       .  S
C1242      C1243   1.408       .  A
C1243      C1244   1.382       .  A
C1243     Br1250   1.925       .  S
C1244      C1245   1.404       .  A
C1244      H1249   1.084       .  S
C1245      C1246   1.406       .  A
C1246     Br1247   1.896       .  S
C1251      C1252   1.415       .  A
C1251      C1256   1.394       .  A
C1251      H1258   1.085       .  S
C1252      C1253   1.398       .  A
C1253      C1254   1.398       .  A
C1253     Br1260   1.914   1_554  S
C1254      C1255   1.414       .  A
C1254      H1259   1.083       .  S
C1255      C1256   1.399       .  A
C1256     Br1257   1.920       .  S
C1261      C1262   1.394       .  A
C1261      C1266   1.390       .  A
C1261      H1268   1.085       .  S
C1262      C1263   1.422       .  A
C1263      C1264   1.406       .  A
C1263     Br1270   1.925       .  S
C1264      C1265   1.401       .  A
C1264      H1269   1.085       .  S
C1265      C1266   1.413       .  A
C1266     Br1267   1.904       .  S
C1271      C1272   1.401       .  A
C1271      C1276   1.403       .  A
C1271      H1278   1.084       .  S
C1272      C1273   1.423       .  A
C1273      C1274   1.408       .  A
C1273     Br1280   1.920       .  S
C1274      C1275   1.400       .  A
C1274      H1279   1.084       .  S
C1275      C1276   1.416       .  A
C1276     Br1277   1.922       .  S
C1281      C1282   1.396       .  A
C1281      C1286   1.385       .  A
C1281      H1288   1.084       .  S
C1282      C1283   1.419       .  A
C1283      C1284   1.370       .  A
C1284      C1285   1.388       .  A
C1284      H1289   1.085       .  S
C1285      C1286   1.405       .  A
C1286     Br1287   1.908       .  S
C1291      C1296   1.385       .  A
C1291      H1298   1.084       .  S
C1292      C1293   1.404       .  A
C1293      C1294   1.386       .  A
C1293     Br1300   1.924       .  S
C1294      C1295   1.404       .  A
C1294      H1299   1.083       .  S
C1296     Br1297   1.929       .  S
C1301      C1302   1.539       .  S
C1301      C1307   1.557       .  S
C1301      C1305   1.527       .  S
C1301      C1420   1.570       .  S
C1302      H1309   1.086       .  S
C1302      C1303   1.378       .  D
C1303      C1304   1.600       .  S
C1303      C1362   1.557       .  S
C1304      C1308   1.617       .  S
C1304      C1306   1.617       .  S
C1304      H1310   1.109       .  S
C1305      H1311   1.087       .  S
C1305      C1306   1.370       .  D
C1306      C1336   1.551       .  S
C1307      H1312   1.085       .  S
C1307      C1308   1.380       .  D
C1308      C1394   1.589       .  S
C1313      C1314   1.544       .  S
C1313      C1319   1.545       .  S
C1313      C1317   1.535       .  S
C1313      C1440   1.578       .  S
C1314      H1321   1.086       .  S
C1314      C1315   1.383       .  D
C1315      C1316   1.600       .  S
C1315      C1409   1.562       .  S
C1316      C1320   1.606       .  S
C1316      C1318   1.612       .  S
C1316      H1322   1.110       .  S
C1317      H1323   1.087       .  S
C1317      C1318   1.371       .  D
C1318      C1351   1.555       .  S
C1319      H1324   1.077       .  S
C1319      C1320   1.378       .  D
C1320      C1382   1.574       .  S
O1325      C1333   1.270       .  A
O1326      C1334   1.231       .  A
O1327     Co1867   2.018   1_554  S
O1328      C1336   1.272       .  A
O1329      C1335   1.284       .  A
O1329     Co1346   2.095       .  S
O1330      C1336   1.311       .  A
O1330     Co1865   2.171       .  S
O1331      C1334   1.252       .  A
O1331     Co1348   2.002       .  S
O1332      C1333   1.257       .  A
O1332     Co1867   1.971       .  S
C1333      C1522   1.487       .  S
C1334      C1542   1.441       .  S
C1335      C1515   1.501       .  S
O1337      C1350   1.268       .  A
O1337     Co1345   1.917       .  S
O1338      C1351   1.282       .  A
O1338     Co1866   2.057       .  S
O1339      C1352   1.273       .  A
O1339     Co1347   2.004       .  S
O1340      C1873   1.301       .  A
O1340     Co1348   2.086       .  S
O1341      C1873   1.275       .  A
O1342     Co1345   1.965       .  S
O1343      C1350   1.283       .  A
O1343     Co1608   2.055   1_545  S
O1344      C1351   1.278       .  A
Co1345     O1850   2.181   1_545  S
Co1345     O1869   2.071   1_556  S
Co1346     O1858   2.019       .  S
Co1347     O1847   1.908   1_546  S
Co1347     O1852   1.955   1_545  S
Co1348     O1603   1.937       .  S
O1349     Co1865   2.061   1_455  S
C1350      C1505   1.461       .  S
C1352      C1552   1.458       .  S
C1353      O1860   1.301   1_545  A
C1353      O1861   1.272       .  A
C1353      C1532   1.497       .  S
O1354      C1362   1.286       .  A
O1354     Co1374   2.051       .  S
O1355      C1363   1.249       .  A
O1355     Co1375   2.009       .  S
O1356      C1364   1.276       .  A
O1357      C1365   1.291       .  A
O1358      C1364   1.277       .  A
O1358     Co1375   1.985       .  S
O1359      C1365   1.259       .  A
O1359     Co1374   1.956       .  S
O1360      C1363   1.253       .  A
O1360     Co1377   2.032       .  S
O1361      C1362   1.285       .  A
O1361     Co1376   2.063       .  S
C1363      C1492   1.498       .  S
C1364      C1462   1.465       .  S
C1365      C1502   1.462       .  S
O1366      C1379   1.247       .  A
O1366     Co1374   1.978       .  S
O1367      C1380   1.266       .  A
O1367     Co1375   2.003       .  S
O1368      C1381   1.254       .  A
O1368     Co1376   2.022       .  S
O1369      C1382   1.281       .  A
O1369     Co1377   2.083       .  S
O1370      C1382   1.292       .  A
O1370     Co1375   2.053       .  S
O1371      C1381   1.241       .  A
O1371     Co1374   1.975       .  S
O1372      C1379   1.251       .  A
O1373     Co1376   1.927   1_554  S
Co1374     O1378   2.091       .  S
Co1376     O1378   2.059       .  S
C1379      C1472   1.446       .  S
C1380      C1512   1.485       .  S
C1381      C1482   1.500       .  S
O1383      C1391   1.268       .  A
O1384      C1392   1.270       .  A
O1385      C1393   1.254       .  A
O1385     Co1405   1.955       .  S
O1386      C1394   1.290       .  A
O1386     Co1406   2.062       .  S
O1387      C1393   1.251       .  A
O1387     Co1404   1.979       .  S
O1388      C1394   1.286       .  A
O1388     Co1403   2.100       .  S
O1389      C1392   1.280       .  A
O1389     Co1406   1.956       .  S
O1390      C1391   1.271       .  A
O1390     Co1405   2.003       .  S
C1391      C1485   1.487       .  S
C1392      C1545   1.434       .  S
C1393      C1455   1.462       .  S
O1395      C1408   1.248       .  A
O1395     Co1403   1.956       .  S
O1396      C1409   1.287       .  A
O1396     Co1404   2.003       .  S
O1397      C1410   1.298       .  A
O1397     Co1405   2.062       .  S
O1398      C1411   1.272       .  A
O1398     Co1406   2.000       .  S
O1399      C1411   1.276       .  A
O1400     Co1403   1.888   1_455  S
O1401      C1408   1.259       .  A
O1401     Co1406   1.960       .  S
O1402      C1409   1.308       .  A
O1402     Co1405   2.110       .  S
Co1403     O1407   1.960       .  S
Co1406     O1407   2.041       .  S
C1408      C1442   1.461       .  S
C1410      C1555   1.474       .  S
C1411      C1495   1.500       .  S
O1412      C1420   1.292       .  A
O1412     Co1952   2.028       .  S
O1413      C1421   1.247       .  A
O1413     Co1953   1.926   1_545  S
O1414      C1422   1.261       .  A
O1414     Co1434   1.958       .  S
O1415      C1423   1.285       .  A
O1415     Co1435   1.997       .  S
O1416      C1422   1.286       .  A
O1416     Co1433   2.026       .  S
O1417      C1423   1.269       .  A
O1417     Co1432   1.949       .  S
O1418      C1421   1.289       .  A
O1418     Co1435   2.090       .  S
O1419      C1420   1.282       .  A
O1419     Co1434   2.024       .  S
C1421      C1535   1.491       .  S
C1422      C1465   1.447       .  S
C1423      C1445   1.444       .  S
O1424      C1437   1.264       .  A
O1424     Co1432   1.845       .  S
O1425      C1438   1.268       .  A
O1425     Co1433   1.995       .  S
O1426      C1439   1.269       .  A
O1426     Co1434   2.078       .  S
O1427      C1440   1.271       .  A
O1427     Co1435   1.985       .  S
O1428      C1440   1.292       .  A
O1428     Co1953   2.103   1_545  S
O1429      C1439   1.236       .  A
O1429     Co1952   1.952       .  S
O1430      C1437   1.302       .  A
O1430     Co1435   2.101       .  S
O1431      C1438   1.258       .  A
O1431     Co1434   1.969       .  S
Co1432     O1932   2.089   1_545  S
Co1432     O1949   1.940   1_545  S
Co1432     O1956   1.909   1_545  S
Co1433     O1933   1.991       .  S
Co1433     O1948   1.919       .  S
Co1433     O1436   1.970       .  S
Co1434     O1436   2.148       .  S
Co1435     O1956   2.011   1_545  S
O1436     Co1952   1.952       .  S
O1436     Co1955   2.140       .  S
C1437      C1475   1.438       .  S
C1438      C1452   1.486       .  S
C1439      C1525   1.496       .  S
C1441      C1442   1.395       .  A
C1441      C1446   1.379       .  A
C1441      H1448   1.083       .  S
C1442      C1443   1.418       .  A
C1443      C1444   1.391       .  A
C1443     Br1450   1.913       .  S
C1444      C1445   1.391       .  A
C1444      H1449   1.084       .  S
C1445      C1446   1.412       .  A
C1446     Br1447   1.932       .  S
C1451      C1452   1.414       .  A
C1451      C1456   1.385       .  A
C1451      H1458   1.082       .  S
C1452      C1453   1.412       .  A
C1453      C1454   1.403       .  A
C1453     Br1460   1.917       .  S
C1454      C1455   1.407       .  A
C1454      H1459   1.083       .  S
C1455      C1456   1.399       .  A
C1456     Br1457   1.929       .  S
C1461      C1462   1.404       .  A
C1461      C1466   1.390       .  A
C1461      H1468   1.083       .  S
C1462      C1463   1.413       .  A
C1463      C1464   1.382       .  A
C1463     Br1470   1.902       .  S
C1464      C1465   1.391       .  A
C1464      H1469   1.085       .  S
C1465      C1466   1.395       .  A
C1466     Br1467   1.896       .  S
C1471      C1472   1.398       .  A
C1471      C1476   1.372       .  A
C1471      H1478   1.085       .  S
C1472      C1473   1.409       .  A
C1473      C1474   1.395       .  A
C1473     Br1480   1.918       .  S
C1474      C1475   1.403       .  A
C1474      H1479   1.085       .  S
C1475      C1476   1.392       .  A
C1476     Br1477   1.905       .  S
C1481      C1482   1.407       .  A
C1481      C1486   1.407       .  A
C1481      H1488   1.082       .  S
C1482      C1483   1.420       .  A
C1483      C1484   1.400       .  A
C1483     Br1490   1.924       .  S
C1484      C1485   1.402       .  A
C1484      H1489   1.082       .  S
C1485      C1486   1.412       .  A
C1486     Br1487   1.919       .  S
C1491      C1492   1.410       .  A
C1491      C1496   1.423       .  A
C1491      H1498   1.088       .  S
C1492      C1493   1.401       .  A
C1493      C1494   1.390       .  A
C1493     Br1500   1.893       .  S
C1494      C1495   1.396       .  A
C1494      H1499   1.110       .  S
C1495      C1496   1.421       .  A
C1496     Br1497   1.915       .  S
C1501      C1502   1.405       .  A
C1501      C1506   1.394       .  A
C1501      H1508   1.084       .  S
C1502      C1503   1.403       .  A
C1503      C1504   1.391       .  A
C1503     Br1510   1.915       .  S
C1504      C1505   1.405       .  A
C1504      H1509   1.084       .  S
C1505      C1506   1.404       .  A
C1506     Br1507   1.912       .  S
C1511      C1512   1.409       .  A
C1511      C1516   1.402       .  A
C1511      H1518   1.084       .  S
C1512      C1513   1.396       .  A
C1513      C1514   1.405       .  A
C1513     Br1520   1.917       .  S
C1514      C1515   1.424       .  A
C1514      H1519   1.070       .  S
C1515      C1516   1.405       .  A
C1516     Br1517   1.893       .  S
C1521      C1522   1.400       .  A
C1521      C1526   1.405       .  A
C1521      H1528   1.084       .  S
C1522      C1523   1.415       .  A
C1523      C1524   1.411       .  A
C1523     Br1530   1.918       .  S
C1524      C1525   1.405       .  A
C1524      H1529   1.083       .  S
C1525      C1526   1.416       .  A
C1526     Br1527   1.905       .  S
C1531      C1532   1.400       .  A
C1531      C1536   1.403       .  A
C1531      H1538   1.083       .  S
C1532      C1533   1.425       .  A
C1533      C1534   1.408       .  A
C1533     Br1540   1.922       .  S
C1534      C1535   1.400       .  A
C1534      H1539   1.083       .  S
C1535      C1536   1.422       .  A
C1536     Br1537   1.925       .  S
C1541      C1542   1.396       .  A
C1541      C1546   1.391       .  A
C1541      H1548   1.084       .  S
C1542      C1543   1.423       .  A
C1543      C1544   1.363       .  A
C1544      C1545   1.384       .  A
C1544      H1549   1.086       .  S
C1545      C1546   1.409       .  A
C1546     Br1547   1.908       .  S
C1551      C1556   1.387       .  A
C1551      H1558   1.084       .  S
C1552      C1553   1.399       .  A
C1553      C1554   1.392       .  A
C1553     Br1560   1.916       .  S
C1554      C1555   1.411       .  A
C1554      H1559   1.083       .  S
C1556     Br1557   1.925       .  S
C1561      C1562   1.543       .  S
C1561      C1567   1.548       .  S
C1561      C1565   1.527       .  S
C1561      C1680   1.571       .  S
C1562      H1569   1.087       .  S
C1562      C1563   1.381       .  D
C1563      C1564   1.583       .  S
C1563      C1622   1.545       .  S
C1564      C1568   1.623       .  S
C1564      C1566   1.629       .  S
C1564      H1570   1.110       .  S
C1565      H1571   1.087       .  S
C1565      C1566   1.371       .  D
C1566      C1596   1.561       .  S
C1567      H1572   1.085       .  S
C1567      C1568   1.379       .  D
C1568      C1654   1.594       .  S
C1573      C1574   1.519       .  S
C1573      C1579   1.541       .  S
C1573      C1577   1.551       .  S
C1573      C1700   1.563       .  S
C1574      H1581   1.086       .  S
C1574      C1575   1.372       .  D
C1575      C1576   1.594       .  S
C1575      C1669   1.542       .  S
C1576      C1580   1.602       .  S
C1576      C1578   1.588       .  S
C1576      H1582   1.110       .  S
C1577      H1583   1.085       .  S
C1577      C1578   1.379       .  D
C1578      C1611   1.537       .  S
C1579      H1584   1.079       .  S
C1579      C1580   1.373       .  D
C1580      C1642   1.561       .  S
O1585      C1593   1.254       .  A
O1586      C1594   1.257       .  A
O1587      C1855   1.258       .  A
O1588      C1596   1.304       .  A
O1588     Co1868   2.078       .  S
O1589      C1595   1.291       .  A
O1589     Co1606   2.096   1_565  S
O1590      C1596   1.294       .  A
O1591      C1594   1.263       .  A
O1591     Co1608   1.951   1_554  S
O1592      C1593   1.252       .  A
C1593      C1782   1.486       .  S
C1594      C1802   1.445       .  S
C1595      O1847   1.244       .  A
C1595      C1775   1.497       .  S
O1597      C1610   1.274       .  A
O1597     Co1605   2.112       .  S
O1598      C1611   1.284       .  A
O1599      C1612   1.270       .  A
O1599     Co1607   2.053       .  S
O1600     Co1608   2.056   1_544  S
O1602     Co1605   2.031   1_455  S
O1603      C1610   1.228       .  A
O1604      C1611   1.267       .  A
O1604     Co1867   2.022   1_554  S
Co1607     O1864   2.087       .  S
Co1608     O1848   1.972       .  S
Co1608     O1869   2.034   1_566  S
O1609     Co1868   2.109   1_445  S
C1610      C1765   1.476       .  S
C1612      C1812   1.471       .  S
C1613      C1792   1.496       .  S
O1614      C1622   1.279       .  A
O1614     Co1634   2.054       .  S
O1615      C1623   1.233       .  A
O1615     Co1635   2.008       .  S
O1616      C1624   1.277       .  A
O1616     Co1896   1.970   1_554  S
O1617      C1625   1.277       .  A
O1617     Co1897   2.022       .  S
O1618      C1624   1.280       .  A
O1618     Co1635   1.995       .  S
O1619      C1625   1.268       .  A
O1619     Co1634   1.974       .  S
O1620      C1623   1.244       .  A
O1620     Co1637   2.065       .  S
O1621      C1622   1.268       .  A
O1621     Co1636   2.017       .  S
C1623      C1752   1.516       .  S
C1624      C1722   1.464       .  S
C1625      C1762   1.489       .  S
O1626      C1639   1.272       .  A
O1626     Co1634   1.999       .  S
O1627      C1640   1.272       .  A
O1627     Co1635   2.018       .  S
O1628      C1641   1.261       .  A
O1628     Co1636   1.987       .  S
O1629      C1642   1.304       .  A
O1629     Co1637   2.054       .  S
O1630      C1642   1.308       .  A
O1630     Co1635   2.060       .  S
O1631      C1641   1.262       .  A
O1631     Co1634   2.005       .  S
O1632      C1639   1.273       .  A
O1632     Co1897   1.990       .  S
O1633      C1900   1.245       .  A
O1633     Co1636   1.935       .  S
Co1634     O1638   2.099       .  S
Co1635     O1898   2.090   1_554  S
Co1636     O1876   1.967       .  S
Co1636     O1638   2.079       .  S
Co1637     O1877   2.024   1_554  S
Co1637     O1892   1.993   1_554  S
Co1637     O1898   2.141   1_554  S
O1638     Co1895   2.123       .  S
O1638     Co1897   2.104       .  S
C1639      C1732   1.485       .  S
C1640      O1893   1.252       .  A
C1640      C1772   1.503       .  S
C1641      C1742   1.505       .  S
O1643      C1651   1.263       .  A
O1644      C1652   1.276       .  A
O1645      C1653   1.265       .  A
O1645     Co1665   1.985       .  S
O1646      C1654   1.284       .  A
O1646     Co1666   2.048       .  S
O1647      C1653   1.234       .  A
O1647     Co1664   1.940       .  S
O1648      C1654   1.290       .  A
O1648     Co1663   2.118       .  S
O1649      C1652   1.272       .  A
O1649     Co1666   1.932       .  S
O1650      C1651   1.309       .  A
O1650     Co1665   2.120       .  S
C1651      C1745   1.503       .  S
C1652      C1805   1.438       .  S
C1653      C1715   1.427       .  S
O1655      C1668   1.244       .  A
O1655     Co1663   1.931       .  S
O1656      C1669   1.304       .  A
O1656     Co1664   2.059       .  S
O1657      C1670   1.304       .  A
O1657     Co1665   2.102       .  S
O1658      C1671   1.272       .  A
O1658     Co1666   2.001       .  S
O1659      C1671   1.276       .  A
O1660     Co1663   1.914   1_455  S
O1661      C1668   1.259       .  A
O1661     Co1666   1.973       .  S
O1662      C1669   1.299       .  A
O1662     Co1665   1.998       .  S
Co1663     O1667   1.963       .  S
Co1666     O1667   2.041       .  S
C1668      C1702   1.434       .  S
C1670      C1815   1.496       .  S
C1671      C1755   1.501       .  S
O1672      C1680   1.283       .  A
O1673      C1681   1.251       .  A
O1674      C1682   1.266       .  A
O1674     Co1694   1.967       .  S
O1675      C1683   1.265       .  A
O1675     Co1695   1.956       .  S
O1676      C1682   1.257       .  A
O1676     Co1693   1.915       .  S
O1677      C1683   1.258       .  A
O1677     Co1692   1.943       .  S
O1678      C1681   1.265       .  A
O1678     Co1695   2.034       .  S
O1679      C1680   1.258       .  A
O1679     Co1694   1.985       .  S
C1681      C1795   1.494       .  S
C1682      C1725   1.457       .  S
C1683      C1705   1.426       .  S
O1684      C1697   1.278       .  A
O1684     Co1692   1.848       .  S
O1685      C1698   1.251       .  A
O1685     Co1693   1.909       .  S
O1686      C1699   1.260       .  A
O1686     Co1694   2.014       .  S
O1687      C1700   1.289       .  A
O1687     Co1695   1.987       .  S
O1688      C1700   1.288       .  A
O1689      C1699   1.253       .  A
O1690      C1697   1.319       .  A
O1690     Co1695   2.131       .  S
O1691      C1698   1.263       .  A
O1691     Co1694   1.966       .  S
Co1693     O1696   2.011       .  S
Co1694     O1696   2.062       .  S
C1697      C1735   1.487       .  S
C1698      C1712   1.419       .  S
C1699      C1785   1.469       .  S
C1701      C1702   1.393       .  A
C1701      C1706   1.378       .  A
C1701      H1708   1.084       .  S
C1702      C1703   1.413       .  A
C1703      C1704   1.384       .  A
C1703     Br1710   1.922       .  S
C1704      C1705   1.391       .  A
C1704      H1709   1.084       .  S
C1705      C1706   1.396       .  A
C1706     Br1707   1.899       .  S
C1711      C1712   1.396       .  A
C1711      C1716   1.377       .  A
C1711      H1718   1.083       .  S
C1712      C1713   1.397       .  A
C1713      C1714   1.385       .  A
C1713     Br1720   1.919       .  S
C1714      C1715   1.403       .  A
C1714      H1719   1.084       .  S
C1715      C1716   1.395       .  A
C1716     Br1717   1.918       .  S
C1721      C1722   1.406       .  A
C1721      C1726   1.393       .  A
C1721      H1728   1.083       .  S
C1722      C1723   1.416       .  A
C1723      C1724   1.381       .  A
C1723     Br1730   1.892       .  S
C1724      C1725   1.384       .  A
C1724      H1729   1.085       .  S
C1725      C1726   1.398       .  A
C1726     Br1727   1.896       .  S
C1731      C1732   1.410       .  A
C1731      C1736   1.408       .  A
C1731      H1738   1.082       .  S
C1732      C1733   1.409       .  A
C1733      C1734   1.397       .  A
C1733     Br1740   1.910       .  S
C1734      C1735   1.406       .  A
C1734      H1739   1.085       .  S
C1735      C1736   1.412       .  A
C1736     Br1737   1.919       .  S
C1741      C1742   1.408       .  A
C1741      C1746   1.405       .  A
C1741      H1748   1.083       .  S
C1742      C1743   1.420       .  A
C1743      C1744   1.407       .  A
C1743     Br1750   1.923       .  S
C1744      C1745   1.408       .  A
C1744      H1749   1.083       .  S
C1745      C1746   1.419       .  A
C1746     Br1747   1.923       .  S
C1751      C1752   1.410       .  A
C1751      C1756   1.421       .  A
C1751      H1758   1.083       .  S
C1752      C1753   1.419       .  A
C1753      C1754   1.402       .  A
C1753     Br1760   1.901       .  S
C1754      C1755   1.399       .  A
C1754      H1759   1.085       .  S
C1755      C1756   1.418       .  A
C1756     Br1757   1.915       .  S
C1761      C1762   1.413       .  A
C1761      C1766   1.402       .  A
C1761      H1768   1.083       .  S
C1762      C1763   1.412       .  A
C1763      C1764   1.396       .  A
C1763     Br1770   1.917       .  S
C1764      C1765   1.406       .  A
C1764      H1769   1.084       .  S
C1765      C1766   1.395       .  A
C1766     Br1767   1.895       .  S
C1771      C1772   1.417       .  A
C1771      C1776   1.407       .  A
C1771      H1778   1.082       .  S
C1772      C1773   1.401       .  A
C1773      C1774   1.412       .  A
C1773     Br1780   1.914       .  S
C1774      C1775   1.420       .  A
C1774      H1779   1.073       .  S
C1775      C1776   1.406       .  A
C1776     Br1777   1.912       .  S
C1781      C1782   1.406       .  A
C1781      C1786   1.389       .  A
C1781      H1788   1.083       .  S
C1782      C1783   1.420       .  A
C1783      C1784   1.405       .  A
C1783     Br1790   1.922       .  S
C1784      C1785   1.402       .  A
C1784      H1789   1.084       .  S
C1785      C1786   1.400       .  A
C1786     Br1787   1.912       .  S
C1791      C1792   1.405       .  A
C1791      C1796   1.405       .  A
C1791      H1798   1.083       .  S
C1792      C1793   1.419       .  A
C1793      C1794   1.407       .  A
C1793     Br1800   1.920       .  S
C1794      C1795   1.405       .  A
C1794      H1799   1.084       .  S
C1795      C1796   1.416       .  A
C1796     Br1797   1.922       .  S
C1801      C1802   1.402       .  A
C1801      C1806   1.389       .  A
C1801      H1808   1.083       .  S
C1802      C1803   1.415       .  A
C1803      C1804   1.369       .  A
C1804      C1805   1.393       .  A
C1804      H1809   1.085       .  S
C1805      C1806   1.403       .  A
C1806     Br1807   1.910       .  S
C1811      C1816   1.394       .  A
C1811      H1818   1.084       .  S
C1812      C1813   1.407       .  A
C1813      C1814   1.400       .  A
C1813     Br1820   1.918       .  S
C1814      C1815   1.408       .  A
C1814      H1819   1.083       .  S
C1816     Br1817   1.925       .  S
C1821      C1822   1.544       .  S
C1821      C1827   1.538       .  S
C1821      C1825   1.533       .  S
C1821      C1940   1.573       .  S
C1822      H1829   1.087       .  S
C1822      C1823   1.382       .  D
C1823      C1824   1.597       .  S
C1823      C1882   1.565       .  S
C1824      C1828   1.617       .  S
C1824      C1826   1.635       .  S
C1824      H1830   1.109       .  S
C1825      H1831   1.087       .  S
C1825      C1826   1.377       .  D
C1826      C1856   1.573       .  S
C1827      H1832   1.085       .  S
C1827      C1828   1.371       .  D
C1828      C1914   1.578       .  S
C1833      C1834   1.534       .  S
C1833      C1839   1.538       .  S
C1833      C1837   1.533       .  S
C1833      C1960   1.562       .  S
C1834      H1841   1.086       .  S
C1834      C1835   1.375       .  D
C1835      C1836   1.611       .  S
C1835      C1929   1.569       .  S
C1836      C1840   1.610       .  S
C1836      C1838   1.605       .  S
C1836      H1842   1.109       .  S
C1837      H1843   1.081       .  S
C1837      C1838   1.370       .  D
C1838      C1871   1.550       .  S
C1839      H1844   1.074       .  S
C1839      C1840   1.370       .  D
C1840      C1902   1.564       .  S
O1845      C1853   1.259   1_545  A
O1846      C1854   1.249       .  A
O1848      C1856   1.275       .  A
O1849      C1855   1.246       .  A
O1849     Co1866   1.993   1_565  S
O1850      C1856   1.314       .  A
O1851      C1854   1.267       .  A
O1851     Co1868   1.970       .  S
O1852      C1853   1.242       .  A
C1853      C2042   1.475       .  S
C1854      C2062   1.450       .  S
C1855      C2035   1.494       .  S
O1857      C1870   1.270       .  A
O1857     Co1865   1.915       .  S
O1858      C1871   1.268       .  A
O1859      C1872   1.271       .  A
O1859     Co1867   1.934       .  S
O1860     Co1868   2.081       .  S
O1862     Co1865   1.968   1_455  S
O1863      C1870   1.286       .  A
O1864      C1871   1.289       .  A
C1870      C2025   1.465       .  S
C1872      C2072   1.458       .  S
C1873      C2052   1.498       .  S
O1874      C1882   1.282       .  A
O1874     Co1894   2.069       .  S
O1875      C1883   1.243       .  A
O1875     Co1895   2.035       .  S
O1876      C1884   1.280       .  A
O1877      C1885   1.280       .  A
O1878      C1884   1.288       .  A
O1878     Co1895   2.013       .  S
O1879      C1885   1.269       .  A
O1879     Co1894   1.967       .  S
O1880      C1883   1.239       .  A
O1880     Co1897   2.049       .  S
O1881      C1882   1.274       .  A
O1881     Co1896   2.041       .  S
C1883      C2012   1.527       .  S
C1884      C1982   1.466       .  S
C1885      C2022   1.486       .  S
O1886      C1899   1.275       .  A
O1886     Co1894   2.007       .  S
O1887      C1900   1.270       .  A
O1887     Co1895   2.028       .  S
O1888      C1901   1.266       .  A
O1888     Co1896   1.990       .  S
O1889      C1902   1.309       .  A
O1889     Co1897   2.078       .  S
O1890      C1902   1.298       .  A
O1890     Co1895   2.040       .  S
O1891      C1901   1.267       .  A
O1891     Co1894   2.020       .  S
O1892      C1899   1.276       .  A
O1893     Co1896   1.956   1_554  S
Co1894     O1898   2.084       .  S
Co1896     O1898   2.076       .  S
C1899      C1992   1.488       .  S
C1900      C2032   1.490       .  S
C1901      C2002   1.512       .  S
O1903      C1911   1.259       .  A
O1904      C1912   1.275       .  A
O1905      C1913   1.263       .  A
O1905     Co1925   1.970       .  S
O1906      C1914   1.285       .  A
O1906     Co1926   2.035       .  S
O1907      C1913   1.243       .  A
O1907     Co1924   1.974       .  S
O1908      C1914   1.286       .  A
O1908     Co1923   2.097       .  S
O1909      C1912   1.281       .  A
O1909     Co1926   1.966       .  S
O1910      C1911   1.314       .  A
O1910     Co1925   2.151       .  S
C1911      C2005   1.507       .  S
C1912      C2065   1.446       .  S
C1913      C1975   1.442       .  S
O1915      C1928   1.244       .  A
O1915     Co1923   1.942       .  S
O1916      C1929   1.304       .  A
O1916     Co1924   2.079       .  S
O1917      C1930   1.297       .  A
O1917     Co1925   2.074       .  S
O1918      C1931   1.268       .  A
O1918     Co1926   2.003       .  S
O1919      C1931   1.275       .  A
O1920     Co1923   1.876   1_455  S
O1921      C1928   1.265       .  A
O1921     Co1926   1.993       .  S
O1922      C1929   1.302       .  A
O1922     Co1925   2.032       .  S
Co1923     O1927   1.915       .  S
Co1926     O1927   2.024       .  S
C1928      C1962   1.453       .  S
C1930      C2075   1.466       .  S
C1931      C2015   1.514       .  S
O1932      C1940   1.279       .  A
O1933      C1941   1.249       .  A
O1934      C1942   1.266       .  A
O1934     Co1954   1.956       .  S
O1935      C1943   1.257       .  A
O1935     Co1955   1.959       .  S
O1936      C1942   1.269       .  A
O1936     Co1953   1.953       .  S
O1937      C1943   1.259       .  A
O1937     Co1952   1.980       .  S
O1938      C1941   1.256       .  A
O1938     Co1955   2.004       .  S
O1939      C1940   1.257       .  A
O1939     Co1954   1.977       .  S
C1941      C2055   1.497       .  S
C1942      C1985   1.439       .  S
C1943      C1965   1.451       .  S
O1944      C1957   1.279       .  A
O1944     Co1952   1.993       .  S
O1945      C1958   1.251       .  A
O1945     Co1953   1.919       .  S
O1946      C1959   1.264       .  A
O1946     Co1954   2.014       .  S
O1947      C1960   1.309       .  A
O1947     Co1955   2.139       .  S
O1948      C1960   1.278       .  A
O1949      C1959   1.248       .  A
O1950      C1957   1.283       .  A
O1950     Co1955   2.019       .  S
O1951      C1958   1.261       .  A
O1951     Co1954   1.970       .  S
Co1953     O1956   2.065       .  S
Co1954     O1956   2.059       .  S
C1957      C1995   1.491       .  S
C1958      C1972   1.446       .  S
C1959      C2045   1.463       .  S
C1961      C1962   1.390       .  A
C1961      C1966   1.383       .  A
C1961      H1968   1.084       .  S
C1962      C1963   1.416       .  A
C1963      C1964   1.395       .  A
C1963     Br1970   1.919       .  S
C1964      C1965   1.395       .  A
C1964      H1969   1.084       .  S
C1965      C1966   1.411       .  A
C1966     Br1967   1.913       .  S
C1971      C1972   1.403       .  A
C1971      C1976   1.382       .  A
C1971      H1978   1.084       .  S
C1972      C1973   1.402       .  A
C1973      C1974   1.392       .  A
C1973     Br1980   1.917       .  S
C1974      C1975   1.403       .  A
C1974      H1979   1.083       .  S
C1975      C1976   1.397       .  A
C1976     Br1977   1.920       .  S
C1981      C1982   1.407       .  A
C1981      C1986   1.396       .  A
C1981      H1988   1.083       .  S
C1982      C1983   1.411       .  A
C1983      C1984   1.372       .  A
C1983     Br1990   1.883       .  S
C1984      C1985   1.380       .  A
C1984      H1989   1.086       .  S
C1985      C1986   1.395       .  A
C1986     Br1987   1.896       .  S
C1991      C1992   1.406       .  A
C1991      C1996   1.404       .  A
C1991      H1998   1.081       .  S
C1992      C1993   1.410       .  A
C1993      C1994   1.405       .  A
C1993     Br2000   1.913       .  S
C1994      C1995   1.408       .  A
C1994      H1999   1.084       .  S
C1995      C1996   1.413       .  A
C1996     Br1997   1.921       .  S
C2001      C2002   1.404       .  A
C2001      C2006   1.401       .  A
C2001      H2008   1.082       .  S
C2002      C2003   1.423       .  A
C2003      C2004   1.415       .  A
C2003     Br2010   1.920       .  S
C2004      C2005   1.407       .  A
C2004      H2009   1.083       .  S
C2005      C2006   1.423       .  A
C2006     Br2007   1.926       .  S
C2011      C2012   1.412       .  A
C2011      C2016   1.428       .  A
C2011      H2018   1.083       .  S
C2012      C2013   1.418       .  A
C2013      C2014   1.405       .  A
C2013     Br2020   1.903       .  S
C2014      C2015   1.401       .  A
C2014      H2019   1.084       .  S
C2015      C2016   1.423       .  A
C2016     Br2017   1.915       .  S
C2021      C2022   1.413       .  A
C2021      C2026   1.397       .  A
C2021      H2028   1.083       .  S
C2022      C2023   1.412       .  A
C2023      C2024   1.394       .  A
C2023     Br2030   1.914       .  S
C2024      C2025   1.402       .  A
C2024      H2029   1.084       .  S
C2025      C2026   1.402       .  A
C2026     Br2027   1.915       .  S
C2031      C2032   1.416       .  A
C2031      C2036   1.401       .  A
C2031      H2038   1.084       .  S
C2032      C2033   1.406       .  A
C2033      C2034   1.414       .  A
C2033     Br2040   1.915       .  S
C2034      C2035   1.416       .  A
C2034      H2039   1.083       .  S
C2035      C2036   1.400       .  A
C2036     Br2037   1.912       .  S
C2041      C2042   1.399       .  A
C2041      C2046   1.390       .  A
C2041      H2048   1.084   1_565  S
C2042      C2043   1.425       .  A
C2043      C2044   1.398       .  A
C2043     Br2050   1.927       .  S
C2044      C2045   1.395       .  A
C2044      H2049   1.084       .  S
C2045      C2046   1.411       .  A
C2046     Br2047   1.922   1_565  S
C2051      C2052   1.399       .  A
C2051      C2056   1.401       .  A
C2051      H2058   1.083       .  S
C2052      C2053   1.425       .  A
C2053      C2054   1.408       .  A
C2053     Br2060   1.923       .  S
C2054      C2055   1.402       .  A
C2054      H2059   1.084       .  S
C2055      C2056   1.421       .  A
C2056     Br2057   1.917       .  S
C2061      C2062   1.397       .  A
C2061      C2066   1.390       .  A
C2061      H2068   1.084       .  S
C2062      C2063   1.420       .  A
C2063      C2064   1.372       .  A
C2064      C2065   1.389       .  A
C2064      H2069   1.085       .  S
C2065      C2066   1.408       .  A
C2066     Br2067   1.905       .  S
C2071      C2076   1.399       .  A
C2071      H2078   1.084       .  S
C2072      C2073   1.415       .  A
C2073      C2074   1.380       .  A
C2073     Br2080   1.929       .  S
C2074      C2075   1.398       .  A
C2074      H2079   1.084       .  S
C2076     Br2077   1.922       .  S
