geometry optimzed in LAMMPS
_audit_creation_date              2020-12-01 
_audit_creation_method            'lammps2cif' 
_symmetry_space_group_name_H-M    'P1' 
_symmetry_Int_Tables_number       1 
_symmetry_cell_setting            triclinic 
loop_ 
_symmetry_equiv_pos_as_xyz 
  x,y,z 
_cell_length_a                    37.43273514 
_cell_length_b                    38.397796052657455 
_cell_length_c                    23.0612386880414 
_cell_angle_alpha                 89.54894498577448 
_cell_angle_beta                  91.40123682840962 
_cell_angle_gamma                 123.246126153009 
loop_ 
_atom_site_label 
_atom_site_type_symbol 
_atom_site_fract_x 
_atom_site_fract_y 
_atom_site_fract_z 
_atom_site_charge 
C1          C  0.57358955  0.86510955  0.01194550     0.81800
N2          N  0.55579837  0.86527746  0.45793501    -0.76500
C3          C  0.55425515  0.89982879  0.45623564     0.84300
N4          N  0.54982066  0.91505269  0.50593779    -0.76400
C5          C  0.57317480  0.91862952  0.06096120     0.84400
N6          N  0.56831592  0.88071754  0.06202728    -0.78100
C7          C  0.31671622  0.86229923  0.98622644     0.81800
N8          N  0.33230174  0.87760719  0.04012268    -0.76500
C9          C  0.36951373  0.91500721  0.04715203     0.84300
N10         N  0.38996329  0.94112165  0.54611899    -0.76400
C11         C  0.37721113  0.92922538  0.49013319     0.84400
N12         N  0.34135388  0.89050014  0.47871711    -0.78100
O13         O  0.54280211  0.00517287  0.40278717    -0.78500
O14         O  0.59531561  0.06220095  0.19555920    -0.78500
O15         O  0.54160998  0.98098202  0.19419458    -0.78500
O16         O  0.61059351  0.11873768  0.32652896    -0.78500
O17         O  0.53492775  0.01267025  0.11744505    -0.78600
O18         O  0.59474685  0.05534340  0.32009338    -0.78500
O19         O  0.60749786  0.12392475  0.20779558    -0.78500
O20         O  0.53944562  0.97355667  0.32006765    -0.78600
C21         C  0.54811043  0.97998377  0.37522395     1.11200
C22         C  0.61815863  0.10077854  0.18631812     1.10500
C23         C  0.54346909  0.98734306  0.13881099     1.11200
C24         C  0.62197852  0.09323778  0.32983759     1.11100
O25         O  0.54749469  0.07943161  0.39157420    -0.78500
O26         O  0.47452812  0.02125425  0.16870031    -0.78600
O27         O  0.45237335  0.95504550  0.31180518    -0.78500
O28         O  0.52659689  0.11581609  0.21244096    -0.78500
O29         O  0.54156856  0.08703343  0.14321625    -0.78600
O30         O  0.47562819  0.00886537  0.36666028    -0.78500
O31         O  0.52848233  0.11045243  0.32999629    -0.78500
O32         O  0.45464065  0.96002677  0.19513616    -0.78600
Co33       Co  0.53457282  0.03146463  0.34018898     1.51500
Co34       Co  0.53294071  0.03794436  0.18621726     1.51700
Co35       Co  0.50087991  0.97754132  0.25674830     1.51600
Co36       Co  0.56486419  0.11192826  0.26927761     1.51500
O37         O  0.52433821  0.04599368  0.26485172    -1.40500
C38         C  0.53426342  0.10315685  0.38136889     1.11100
C39         C  0.44780460  0.98343245  0.16538503     1.11200
C40         C  0.44661511  0.97201055  0.35373464     1.11100
C41         C  0.52820852  0.10939056  0.15923071     1.11100
C42         C  0.52115005  0.23483010  0.00182409     0.81800
N43         N  0.50988426  0.20618760  0.46823087    -0.76500
C44         C  0.51115340  0.17152476  0.47222920     0.84300
N45         N  0.52818536  0.16943660  0.01227246    -0.76400
C46         C  0.52086562  0.18418131  0.06007295     0.84400
N47         N  0.51777364  0.21767128  0.05521821    -0.78100
C48         C  0.73221223  0.19575114  0.00813659     0.81800
N49         N  0.72395223  0.20492555  0.41709051    -0.76500
C50         C  0.69317546  0.16349881  0.41594447     0.84300
N51         N  0.67347028  0.11332845  0.98780306    -0.76400
C52         C  0.67723483  0.12994556  0.04185460     0.84400
N53         N  0.70692273  0.17118677  0.05142508    -0.78100
O54         O  0.07148102  0.61357428  0.29974306    -0.78500
O55         O  0.00888158  0.58705403  0.16937342    -0.78500
O56         O  0.13753399  0.60409632  0.19182653    -0.78500
O57         O  0.97491007  0.55705317  0.27974905    -0.78500
O58         O  0.09383528  0.62432254  0.17484104    -0.78600
O59         O  0.00232102  0.56698165  0.36876555    -0.78500
O60         O  0.95188090  0.52513480  0.17360169    -0.78500
O61         O  0.12185582  0.60056245  0.30739147    -0.78600
C62         C  0.10810852  0.62379373  0.31798722     1.11200
C63         C  0.96997763  0.56241030  0.15704744     1.11100
C64         C  0.13087807  0.63159394  0.17489627     1.11200
C65         C  0.98122874  0.57311159  0.33077924     1.11100
O66         O  0.98040367  0.49136642  0.32358332    -0.78500
O67         O  0.08575154  0.55342887  0.11411361    -0.78600
O68         O  0.07765733  0.51043163  0.30211791    -0.78500
O69         O  0.97660082  0.46838185  0.18841767    -0.78500
O70         O  0.00012732  0.51302546  0.11474705    -0.78600
O71         O  0.06074324  0.54299478  0.36215340    -0.78500
O72         O  0.92399232  0.47203026  0.26657829    -0.78500
O73         O  0.09148209  0.51580436  0.18236765    -0.78600
Co74       Co  0.02621759  0.55389097  0.30584033     1.51500
Co75       Co  0.04684443  0.56898194  0.14807629     1.51700
Co76       Co  0.10266879  0.55594487  0.24520320     1.51600
Co77       Co  0.97939421  0.51143373  0.23793455     1.51500
O78         O  0.04357251  0.54645872  0.22782399    -1.40500
C79         C  0.93991552  0.46656332  0.31216688     1.11100
C80         C  0.09455934  0.52695407  0.12968093     1.11200
C81         C  0.07463710  0.51987625  0.35327145     1.11100
C82         C  0.97959403  0.47573013  0.13420716     1.11100
C83         C  0.19067433  0.50094583  0.96157297     0.81800
N84         N  0.18538584  0.50821808  0.45664232    -0.76500
C85         C  0.14736020  0.50520452  0.45580033     0.84300
N86         N  0.11499757  0.49229851  0.93208841    -0.76400
C87         C  0.13256534  0.50590721  0.98650643     0.84400
N88         N  0.17041269  0.51010235  0.00100634    -0.78100
C89         C  0.83052841  0.31706361  0.01428381     0.81800
N90         N  0.86168208  0.36706338  0.44052836    -0.76500
C91         C  0.90203731  0.40060418  0.45068674     0.84300
N92         N  0.89749412  0.39603226  0.99760454    -0.76400
C93         C  0.88975840  0.37997804  0.05195299     0.84400
N94         N  0.85567736  0.34036797  0.06044757    -0.78100
C95         C  0.84227858  0.56670312  0.99208394     0.81800
N96         N  0.87436835  0.56787234  0.41906206    -0.76500
C97         C  0.91264287  0.57307320  0.40877634     0.84300
N98         N  0.91785621  0.57323126  0.00147019    -0.76400
C99         C  0.89351556  0.56367191  0.04879175     0.84400
N100        N  0.85541278  0.55992553  0.04397746    -0.78100
C101        C  0.22077583  0.74198202  0.98935921     0.81800
N102        N  0.20028243  0.72404885  0.45849455    -0.76500
C103        C  0.16656519  0.68380142  0.45527989     0.84300
N104        N  0.16664264  0.65931269  0.00483516    -0.76400
C105        C  0.19272276  0.68343013  0.04908154     0.84400
N106        N  0.21946575  0.72499423  0.04172709    -0.78100
O107        O  0.52116625  0.50434363  0.10755970    -0.78500
O108        O  0.49063923  0.54185254  0.37675790    -0.78500
O109        O  0.52394506  0.45663267  0.29486689    -0.78500
O110        O  0.44275716  0.53971755  0.18917400    -0.78500
O111        O  0.48689920  0.47580803  0.33734004    -0.78600
O112        O  0.45449420  0.49082372  0.16817620    -0.78500
O113        O  0.44196933  0.53191977  0.31067313    -0.78500
O114        O  0.52011683  0.46667232  0.18283439    -0.78600
C115        C  0.51533309  0.47083569  0.12780701     1.11200
C116        C  0.45249478  0.52917180  0.36244087     1.11100
C117        C  0.49572049  0.44877190  0.33025089     1.11200
C118        C  0.43297243  0.50716805  0.16083270     1.11100
O119        O  0.51572839  0.57128379  0.13116710    -0.78500
O120        O  0.55905546  0.53460268  0.39579827    -0.78600
O121        O  0.59764524  0.52864010  0.20516833    -0.78500
O122        O  0.52159945  0.61092532  0.31932491    -0.78500
O123        O  0.57224283  0.59844172  0.33018674    -0.78600
O124        O  0.58111268  0.57042969  0.17240075    -0.78500
O125        O  0.52622188  0.61499672  0.20110977    -0.78500
O126        O  0.59288764  0.53265553  0.31877170    -0.78600
Co127      Co  0.51779000  0.52843351  0.17517735     1.51500
Co128      Co  0.53100624  0.53710760  0.32941659     1.51700
Co129      Co  0.54642628  0.50878776  0.25182437     1.51600
Co130      Co  0.48457310  0.57224299  0.25492448     1.51500
O131        O  0.51347759  0.54016063  0.25317885    -1.40500
C132        C  0.53041404  0.60776768  0.14921713     1.11100
C133        C  0.59162010  0.53812191  0.37406914     1.11200
C134        C  0.60655520  0.55858046  0.17302885     1.11100
C135        C  0.55780394  0.62089121  0.34005356     1.11100
C136        C  0.49889417  0.32614235  0.49670978     0.81800
N137        N  0.50232353  0.34694330  0.04206757    -0.76500
C138        C  0.49588140  0.37836478  0.04121252     0.84300
N139        N  0.49301752  0.39277784  0.48108436    -0.76400
C140        C  0.49315652  0.37195879  0.43416619     0.84400
N141        N  0.49695437  0.33888807  0.44188958    -0.78100
C142        C  0.31196023  0.50761366  0.51602926     0.81800
N143        N  0.32878336  0.50808605  0.46434504    -0.76500
C144        C  0.36332673  0.50551619  0.46279327     0.84300
N145        N  0.37851012  0.51103911  0.99439511    -0.76400
C146        C  0.35706474  0.50658781  0.04366938     0.84400
N147        N  0.32044348  0.50633032  0.03993586    -0.78100
C148        C  0.74383470  0.54595819  0.49439829     0.81800
N149        N  0.71562808  0.55993856  0.05300215    -0.76500
C150        C  0.68236788  0.56441282  0.06042418     0.84300
N151        N  0.66544172  0.57265393  0.01373117    -0.76400
C152        C  0.68941734  0.55249013  0.45382998     0.84400
N153        N  0.72300109  0.54859986  0.44694497    -0.78100
C154        C  0.56489410  0.74692519  0.50854342     0.81800
N155        N  0.56554496  0.73203407  0.45551137    -0.76500
C156        C  0.57158679  0.70035053  0.45092273     0.84300
N157        N  0.56281556  0.68381124  0.00587438    -0.76400
C158        C  0.56185188  0.70071475  0.05639765     0.84400
N159        N  0.56254926  0.73624474  0.05551691    -0.78100
C160        C  0.38534993  0.51134899  0.40799386    -0.14800
C161        C  0.42176978  0.51248942  0.40896789    -0.30000
H162        H  0.37461368  0.51930947  0.36885549     0.14200
H163        H  0.43259571  0.50529749  0.44877239     0.14800
C164        C  0.40142320  0.49299364  0.11132717    -0.14800
C165        C  0.37686860  0.50845443  0.10149963    -0.30000
H166        H  0.40268217  0.47381782  0.07810216     0.14200
H167        H  0.37392506  0.52606248  0.13552284     0.14800
C168        C  0.56572263  0.68006022  0.39405061    -0.14800
C169        C  0.57910137  0.65443470  0.38430816    -0.30000
H170        H  0.54512866  0.68214270  0.36197307     0.14200
H171        H  0.60116059  0.65364107  0.41513332     0.14800
C172        C  0.55189100  0.64097611  0.10721567    -0.14800
C173        C  0.55394012  0.67688137  0.11008376    -0.30000
H174        H  0.56137097  0.63267783  0.06827370     0.14200
H175        H  0.54418383  0.68535876  0.14853510     0.14800
C176        C  0.62768349  0.55069642  0.41420343    -0.14800
C177        C  0.66202314  0.54925152  0.40385763    -0.30000
H178        H  0.62350148  0.55893507  0.45732436     0.14200
H179        H  0.66703714  0.54130271  0.36107943     0.14800
C180        C  0.64136710  0.57581881  0.13087103    -0.14800
C181        C  0.66198553  0.55719383  0.11750920    -0.30000
H182        H  0.64467180  0.60023078  0.10268475     0.14200
H183        H  0.65980975  0.53316321  0.14539192     0.14800
C184        C  0.47714137  0.41219088  0.36856341    -0.14800
C185        C  0.49445895  0.38945799  0.37623240    -0.30000
H186        H  0.45518117  0.41004930  0.40060141     0.14200
H187        H  0.51602231  0.39040491  0.34463315     0.14800
C188        C  0.50151013  0.40291463  0.09361311    -0.14800
C189        C  0.49982352  0.43675416  0.08670042    -0.30000
H190        H  0.51215520  0.39685649  0.13461321     0.14200
H191        H  0.48923823  0.44237658  0.04529663     0.14800
C192        C  0.80246235  0.56434924  0.98885147    -0.11700
C193        C  0.76970786  0.56339345  0.99211879    -0.13200
C194        C  0.23111952  0.50518825  0.97584379    -0.11700
C195        C  0.26481964  0.50757113  0.98300059    -0.13200
C196        C  0.94947164  0.57654669  0.11711555    -0.14800
C197        C  0.90772080  0.55428930  0.10324838    -0.30000
H198        H  0.97076258  0.60487658  0.09319384     0.14200
H199        H  0.88516904  0.52702480  0.12799758     0.14800
C200        C  0.94004637  0.60356290  0.36494487    -0.14800
C201        C  0.97259019  0.60599961  0.33750491    -0.30000
H202        H  0.93431802  0.62793635  0.35574043     0.14200
H203        H  0.98962407  0.63181174  0.30765037     0.14800
C204        C  0.91787506  0.40627889  0.10118600    -0.14800
C205        C  0.95571602  0.44197534  0.09105114    -0.30000
H206        H  0.90623016  0.39807623  0.14492655     0.14200
H207        H  0.96653577  0.44985725  0.04687839     0.14800
C208        C  0.91267403  0.43203101  0.35228240    -0.14800
C209        C  0.92838640  0.42931119  0.40407377    -0.30000
H210        H  0.87895614  0.41084495  0.34131398     0.14200
H211        H  0.96185808  0.45178287  0.41521921     0.14800
C212        C  0.11066677  0.51673474  0.02897987    -0.14800
C213        C  0.11279299  0.51215227  0.08695899    -0.30000
H214        H  0.09174150  0.52819355  0.01188640     0.14200
H215        H  0.12937111  0.49812440  0.10371568     0.14800
C216        C  0.12641875  0.50682825  0.40123109    -0.14800
C217        C  0.09092388  0.50797706  0.40308234    -0.30000
H218        H  0.14198069  0.51081461  0.36033112     0.14200
H219        H  0.07680730  0.50624449  0.44445918     0.14800
C220        C  0.18728157  0.66427652  0.10579989    -0.14800
C221        C  0.16372750  0.66860118  0.14420623    -0.30000
H222        H  0.18811018  0.63641438  0.10692859     0.14200
H223        H  0.15879465  0.69386018  0.13872483     0.14800
C224        C  0.13117674  0.65895851  0.35957204    -0.14800
C225        C  0.15655611  0.65902745  0.40182541    -0.30000
H226        H  0.12133644  0.68080511  0.36215292     0.14200
H227        H  0.16309989  0.63472014  0.40266100     0.14800
C228        C  0.76548827  0.23871406  0.01896454    -0.11700
C229        C  0.79504666  0.27472974  0.02141002    -0.13200
C230        C  0.50157853  0.29018856  0.50539976    -0.11700
C231        C  0.51609796  0.26899909  0.99600163    -0.13200
C232        C  0.65331506  0.11943377  0.14423467    -0.14800
C233        C  0.64857989  0.10388788  0.08989520    -0.30000
H234        H  0.67981906  0.15098832  0.15376551     0.14200
H235        H  0.62101720  0.07313375  0.07917266     0.14800
C236        C  0.66689668  0.10662748  0.33909040    -0.14800
C237        C  0.69740559  0.13797002  0.37250348    -0.30000
H238        H  0.67662218  0.08929605  0.31439835     0.14200
H239        H  0.72957634  0.14498490  0.36842227     0.14800
C240        C  0.51487770  0.12687402  0.11371920    -0.14800
C241        C  0.51945672  0.16423883  0.11594486    -0.30000
H242        H  0.50664349  0.11017725  0.07262450     0.14200
H243        H  0.52748448  0.18159976  0.15635821     0.14800
C244        C  0.51869357  0.15311371  0.42178045    -0.14800
C245        C  0.52664100  0.12292912  0.42944542    -0.30000
H246        H  0.51835049  0.16457849  0.37860287     0.14200
H247        H  0.52841883  0.11256311  0.47286326     0.14800
C248        C  0.25082693  0.78535879  0.98116765    -0.11700
C249        C  0.27944978  0.82136695  0.98011777    -0.13200
C250        C  0.41423414  0.96814873  0.11994139    -0.14800
C251        C  0.38908477  0.92794060  0.10561141    -0.30000
H252        H  0.41543942  0.99124871  0.09085687     0.14200
H253        H  0.38642059  0.90422639  0.13471822     0.14800
C254        C  0.40621083  0.95802686  0.44434022    -0.14800
C255        C  0.40791031  0.94660913  0.38990603    -0.30000
H256        H  0.43181457  0.98896276  0.45927074     0.14200
H257        H  0.38381249  0.91508241  0.37520550     0.14800
C258        C  0.56625102  0.79287739  0.00529376    -0.11700
C259        C  0.56880135  0.82539598  0.01059432    -0.13200
C260        C  0.55970326  0.96945085  0.09962080    -0.14800
C261        C  0.56205083  0.93587348  0.10986166    -0.30000
H262        H  0.56767034  0.98415798  0.05726270     0.14200
H263        H  0.55280944  0.91992098  0.15131231     0.14800
C264        C  0.55437704  0.92083458  0.40224638    -0.14800
C265        C  0.56750841  0.96115322  0.40726260    -0.30000
H266        H  0.53603702  0.90232865  0.36454541     0.14200
H267        H  0.58579097  0.97845564  0.44587916     0.14800
C268        C  0.55426358  0.84752926  0.51028643     0.81800
N269        N  0.58158339  0.88622785  0.96123992    -0.76500
C270        C  0.58676029  0.92393450  0.96083811     0.84300
N271        N  0.58301978  0.93948159  0.01063570    -0.76400
C272        C  0.54754233  0.89781726  0.55769356     0.84400
N273        N  0.55021785  0.86388471  0.56033473    -0.78100
C274        C  0.31884515  0.86457397  0.52372563     0.81800
N275        N  0.33328615  0.87683270  0.57921857    -0.76500
C276        C  0.36842553  0.91526919  0.59073567     0.84300
N277        N  0.39194098  0.93657223  0.99963121    -0.76400
C278        C  0.37686909  0.92068172  0.94538518     0.84400
N279        N  0.33946971  0.88316000  0.93905525    -0.78100
O280        O  0.55222449  0.01222935  0.88320212    -0.78500
O281        O  0.58228726  0.06054214  0.64336142    -0.78500
O282        O  0.54419632  0.96931073  0.69942021    -0.78500
O283        O  0.63536922  0.12637435  0.78248080    -0.78500
O284        O  0.51400764  0.99128214  0.63971926    -0.78600
O285        O  0.61510688  0.07904943  0.84799755    -0.78500
O286        O  0.60706861  0.12245258  0.67221944    -0.78500
O287        O  0.56326341  0.98016839  0.81480541    -0.78600
C288        C  0.56726923  0.99146896  0.86686723     1.11200
C289        C  0.60702131  0.09847126  0.63557121     1.10500
C290        C  0.53027053  0.96997374  0.64939855     1.11200
C291        C  0.64447490  0.11003722  0.82297502     1.11100
O292        O  0.55770553  0.08393991  0.90355514    -0.78500
O293        O  0.47291518  0.01899491  0.71886665    -0.78600
O294        O  0.48133430  0.96955994  0.83472318    -0.78500
O295        O  0.52428266  0.10135504  0.70599492    -0.78500
O296        O  0.51121079  0.06373118  0.62513025    -0.78600
O297        O  0.49207950  0.03143823  0.83430030    -0.78500
O298        O  0.55717290  0.11897251  0.82640977    -0.78500
O299        O  0.46310248  0.95813389  0.71937424    -0.78600
Co300      Co  0.55443983  0.05680220  0.83578449     1.51500
Co301      Co  0.52964283  0.04295170  0.68477593     1.51700
Co302      Co  0.51621613  0.97433989  0.76662947     1.51600
Co303      Co  0.57724364  0.10747044  0.74860163     1.51500
O304        O  0.55388005  0.03974949  0.75655125    -1.40500
C305        C  0.55508836  0.11272801  0.88191941     1.11100
C306        C  0.44894675  0.98077186  0.70816089     1.11200
C307        C  0.47005042  0.99385712  0.84937175     1.11100
C308        C  0.50888399  0.09086083  0.65326274     1.11100
C309        C  0.50481382  0.22290069  0.51698280     0.81800
N310        N  0.52848504  0.21919177  0.95380794    -0.76500
C311        C  0.53227762  0.18615628  0.95946044     0.84300
N312        N  0.50665879  0.15378520  0.52427544    -0.76400
C313        C  0.50152220  0.16953721  0.57301056     0.84400
N314        N  0.50135198  0.20491950  0.56986786    -0.78100
C315        C  0.72792379  0.22912935  0.46240337     0.81800
N316        N  0.72809083  0.17917425  0.95489414    -0.76500
C317        C  0.69855678  0.13830067  0.94373640     0.84300
N318        N  0.66780669  0.14571436  0.46293187    -0.76400
C319        C  0.67208698  0.17007156  0.50903547     0.84400
N320        N  0.70202779  0.21160797  0.50813860    -0.78100
O321        O  0.05677342  0.54254288  0.87865838    -0.78500
O322        O  0.96846166  0.50897810  0.62950137    -0.78500
O323        O  0.08083678  0.60320805  0.70375460    -0.78500
O324        O  0.97528728  0.57030491  0.80445796    -0.78500
O325        O  0.04567057  0.55630611  0.63892014    -0.78600
O326        O  0.98083669  0.53326991  0.87534353    -0.78500
O327        O  0.97214239  0.55775832  0.68278041    -0.78500
O328        O  0.08145056  0.59409049  0.81763185    -0.78600
C329        C  0.07980991  0.58106404  0.86824645     1.11200
C330        C  0.96299879  0.53864099  0.63476420     1.11100
C331        C  0.07138689  0.59403413  0.65159114     1.11200
C332        C  0.97637722  0.56260995  0.85804298     1.11100
O333        O  0.94500132  0.45077623  0.81751950    -0.78500
O334        O  0.02171539  0.47909892  0.62693330    -0.78600
O335        O  0.08768280  0.52199679  0.80369386    -0.78500
O336        O  0.91709601  0.46825511  0.70403224    -0.78500
O337        O  0.96117284  0.44698546  0.70823405    -0.78600
O338        O  0.02369255  0.46618257  0.81221063    -0.78500
O339        O  0.91524624  0.48501721  0.81839309    -0.78500
O340        O  0.07856529  0.52245755  0.68523373    -0.78600
Co341      Co  0.00153100  0.49906847  0.83983433     1.51500
Co342      Co  0.00737090  0.50230717  0.68361440     1.51700
Co343      Co  0.07578470  0.55836483  0.75306147     1.51600
Co344      Co  0.94997592  0.52199571  0.75210338     1.51500
O345        O  0.00803686  0.52556783  0.75967038    -1.40500
C346        C  0.91510268  0.45349816  0.83389955     1.11100
C347        C  0.06041216  0.49504025  0.64296306     1.11200
C348        C  0.06342193  0.48297596  0.80990667     1.11100
C349        C  0.92492968  0.44032829  0.69411791     1.11100
C350        C  0.20447127  0.50947942  0.50865288     0.81800
N351        N  0.17235130  0.48670709  0.90821158    -0.76500
C352        C  0.13480864  0.48248784  0.89275200     0.84300
N353        N  0.12933010  0.50332729  0.50657036    -0.76400
C354        C  0.14808553  0.50466010  0.55802062     0.84400
N355        N  0.18605371  0.50824770  0.55926460    -0.78100
C356        C  0.83807171  0.34262194  0.48542566     0.81800
N357        N  0.83942950  0.33327532  0.96001840    -0.76500
C358        C  0.87245287  0.37304109  0.95178837     0.84300
N359        N  0.91854334  0.40905416  0.50559889    -0.76400
C360        C  0.89494492  0.38541182  0.55074715     0.84400
N361        N  0.85449870  0.35208829  0.54066533    -0.78100
C362        C  0.85160916  0.54643433  0.46605959     0.81800
N363        N  0.86669118  0.57564958  0.94426924    -0.76500
C364        C  0.90489350  0.57904556  0.94905439     0.84300
N365        N  0.92868044  0.55759148  0.44673348    -0.76400
C366        C  0.90645595  0.53675990  0.49439399     0.84400
N367        N  0.86814276  0.53160273  0.50444303    -0.78100
C368        C  0.21120509  0.74530894  0.50966917     0.81800
N369        N  0.19468490  0.71774048  0.94485664    -0.76500
C370        C  0.16715293  0.67623958  0.95281859     0.84300
N371        N  0.14386868  0.66471731  0.50340070    -0.76400
C372        C  0.15389193  0.68530594  0.55497526     0.84400
N373        N  0.18819834  0.72573317  0.55813568    -0.78100
O374        O  0.54254540  0.51461567  0.61220658    -0.78500
O375        O  0.48148417  0.52381852  0.84063830    -0.78500
O376        O  0.50815720  0.45994975  0.79273899    -0.78500
O377        O  0.45575260  0.51342528  0.70893861    -0.78500
O378        O  0.54055280  0.50663428  0.86160034    -0.78600
O379        O  0.49609815  0.54699011  0.63312821    -0.78500
O380        O  0.45611688  0.55895264  0.80118729    -0.78500
O381        O  0.50958180  0.46346491  0.67499448    -0.78600
C382        C  0.51903803  0.47591371  0.62355814     1.11200
C383        C  0.45401765  0.53437779  0.84012940     1.11100
C384        C  0.51641233  0.46902976  0.84572732     1.11200
C385        C  0.45984483  0.52079969  0.65487063     1.11100
O386        O  0.57137748  0.61964392  0.68979859    -0.78500
O387        O  0.60853361  0.58132939  0.81165387    -0.78600
O388        O  0.60127580  0.52006694  0.67867734    -0.78500
O389        O  0.54242237  0.60862540  0.81609794    -0.78500
O390        O  0.55654040  0.58167620  0.89121338    -0.78600
O391        O  0.61608368  0.58373688  0.67246239    -0.78500
O392        O  0.50679149  0.60111760  0.70710616    -0.78500
O393        O  0.60041182  0.52058485  0.79662303    -0.78600
Co394      Co  0.55634431  0.56584645  0.65706869     1.51500
Co395      Co  0.54642246  0.55486761  0.81926408     1.51700
Co396      Co  0.55303425  0.49362012  0.73618327     1.51600
Co397      Co  0.49945412  0.55674651  0.76223748     1.51500
O398        O  0.53937765  0.53909746  0.73587240    -1.40500
C399        C  0.54257059  0.62700797  0.68539175     1.11100
C400        C  0.62201082  0.55749124  0.81702679     1.11200
C401        C  0.62603605  0.55778452  0.66322407     1.11100
C402        C  0.55580634  0.61153672  0.86938061     1.11100
C403        C  0.50366744  0.33006766  0.99105744     0.81800
N404        N  0.49874682  0.34761105  0.54345635    -0.76500
C405        C  0.49601893  0.38126128  0.53555123     0.84300
N406        N  0.49137898  0.39249828  0.98964222    -0.76400
C407        C  0.49416361  0.37739390  0.93876294     0.84400
N408        N  0.50061339  0.34585536  0.93923965    -0.78100
C409        C  0.30479643  0.50935431  0.98738907     0.81800
N410        N  0.32702329  0.51441623  0.93865405    -0.76500
C411        C  0.36386372  0.51516842  0.94175216     0.84300
N412        N  0.38089966  0.50274783  0.51315264    -0.76400
C413        C  0.36503080  0.50272487  0.56521282     0.84400
N414        N  0.33039519  0.50564338  0.56680074    -0.78100
C415        C  0.73222601  0.56465635  0.99932419     0.81800
N416        N  0.73013062  0.54588774  0.54884316    -0.76500
C417        C  0.69696544  0.55059103  0.55568038     0.84300
N418        N  0.67726469  0.55391660  0.50816283    -0.76400
C419        C  0.68101901  0.57637913  0.95999877     0.84400
N420        N  0.71455679  0.57237172  0.95280215    -0.78100
C421        C  0.56455493  0.75464218  0.00407417     0.81800
N422        N  0.56462305  0.73675255  0.95284193    -0.76500
C423        C  0.56425824  0.70101828  0.95407989     0.84300
N424        N  0.57626223  0.68324441  0.49988200    -0.76400
C425        C  0.57431216  0.69694334  0.55306487     0.84400
N426        N  0.56848284  0.72884492  0.55749196    -0.78100
C427        C  0.39001592  0.52481175  0.88901230    -0.14800
C428        C  0.42183234  0.51822695  0.88654950    -0.30000
H429        H  0.38415547  0.53931035  0.85250317     0.14200
H430        H  0.42638343  0.50230292  0.92238666     0.14800
C431        C  0.42281572  0.50089346  0.61451060    -0.14800
C432        C  0.38964482  0.50544914  0.61853323    -0.30000
H433        H  0.42818671  0.49079568  0.57361482     0.14200
H434        H  0.38478930  0.51702969  0.65842630     0.14800
C435        C  0.56107325  0.67724519  0.90116187    -0.14800
C436        C  0.57122935  0.64850681  0.90665483    -0.30000
H437        H  0.54565758  0.67907992  0.86190024     0.14200
H438        H  0.58718944  0.64826293  0.94649755     0.14800
C439        C  0.54816867  0.66079678  0.64711796    -0.14800
C440        C  0.57676186  0.67513244  0.60441121    -0.30000
H441        H  0.52435975  0.66870232  0.64747413     0.14200
H442        H  0.59754793  0.66366618  0.60111429     0.14800
C443        C  0.65839226  0.56868757  0.85648145    -0.14800
C444        C  0.65874241  0.58176776  0.91047316    -0.30000
H445        H  0.67770515  0.55635303  0.84711740     0.14200
H446        H  0.63598236  0.58985315  0.92085652     0.14800
C447        C  0.66212508  0.57030608  0.62436338    -0.14800
C448        C  0.67762657  0.54668910  0.61270436    -0.30000
H449        H  0.67196677  0.59739855  0.59747235     0.14200
H450        H  0.66990576  0.52037226  0.63997035     0.14800
C451        C  0.49961985  0.43689084  0.89033300    -0.14800
C452        C  0.49769580  0.40080412  0.88543288    -0.30000
H453        H  0.49523721  0.44674750  0.93191894     0.14200
H454        H  0.50434879  0.39194848  0.84465642     0.14800
C455        C  0.49994907  0.40759609  0.58498733    -0.14800
C456        C  0.50649756  0.44552437  0.57626988    -0.30000
H457        H  0.50116864  0.39741331  0.62877411     0.14200
H458        H  0.50783588  0.45670508  0.53233329     0.14800
C459        C  0.81222272  0.54330703  0.47789505    -0.11700
C460        C  0.78044740  0.54331805  0.48656513    -0.13200
C461        C  0.24343914  0.51076997  0.51116832    -0.11700
C462        C  0.27511296  0.51001392  0.51578587    -0.13200
C463        C  0.94345351  0.54903979  0.58738899    -0.14800
C464        C  0.92698288  0.52570479  0.53905083    -0.30000
H465        H  0.94071393  0.57552408  0.59340431     0.14200
H466        H  0.92988178  0.49950552  0.53135055     0.14800
C467        C  0.92907403  0.58213105  0.89696086    -0.14800
C468        C  0.96531380  0.58242613  0.90221661    -0.30000
H469        H  0.91315325  0.57644449  0.85476332     0.14200
H470        H  0.97997599  0.58619255  0.94494010     0.14800
C471        C  0.91422161  0.39745667  0.60968313    -0.14800
C472        C  0.89659345  0.40668913  0.65214380    -0.30000
H473        H  0.94808566  0.40933352  0.61302672     0.14200
H474        H  0.86401589  0.39881138  0.64594006     0.14800
C475        C  0.88708609  0.42611340  0.88005016    -0.14800
C476        C  0.88399226  0.39047517  0.89328010    -0.30000
H477        H  0.87384049  0.43832225  0.90891191     0.14200
H478        H  0.89595238  0.37726868  0.86400385     0.14800
C479        C  0.12719284  0.50419160  0.61100711    -0.14800
C480        C  0.08461078  0.48372664  0.60863380    -0.30000
H481        H  0.14601495  0.52515859  0.64656238     0.14200
H482        H  0.06697430  0.46202264  0.57307884     0.14800
C483        C  0.11341062  0.45961115  0.83775725    -0.14800
C484        C  0.08055323  0.45645304  0.80694265    -0.30000
H485        H  0.12389843  0.43993691  0.82266182     0.14200
H486        H  0.06640085  0.43310673  0.77261745     0.14800
C487        C  0.12951499  0.66223089  0.60788070    -0.14800
C488        C  0.09187415  0.62468318  0.60355246    -0.30000
H489        H  0.14414951  0.67459850  0.65040232     0.14200
H490        H  0.07790052  0.61295679  0.56051445     0.14800
C491        C  0.10708082  0.60962140  0.91496562    -0.14800
C492        C  0.13770860  0.64971548  0.90568362    -0.30000
H493        H  0.10316058  0.59635173  0.95817476     0.14200
H494        H  0.14166486  0.66312740  0.86257728     0.14800
C495        C  0.76409499  0.27147639  0.46675702    -0.11700
C496        C  0.79688947  0.30510340  0.47416003    -0.13200
C497        C  0.51071047  0.29706155  0.99235120    -0.11700
C498        C  0.50328123  0.25972286  0.51206243    -0.13200
C499        C  0.63207006  0.11398345  0.58185678    -0.14800
C500        C  0.64740957  0.15273893  0.56261944    -0.30000
H501        H  0.63544395  0.09250657  0.55585584     0.14200
H502        H  0.64399909  0.17394428  0.58925781     0.14800
C503        C  0.68893789  0.12335498  0.83645174    -0.14800
C504        C  0.70381949  0.12109899  0.88950312    -0.30000
H505        H  0.70717071  0.12545747  0.79913263     0.14200
H506        H  0.73336818  0.12205346  0.88956881     0.14800
C507        C  0.48658759  0.10832544  0.62480570    -0.14800
C508        C  0.50085454  0.14907889  0.62796138    -0.30000
H509        H  0.46626543  0.09026679  0.58787526     0.14200
H510        H  0.52129559  0.16837339  0.66389714     0.14800
C511        C  0.54117219  0.16746390  0.91036086    -0.14800
C512        C  0.54764542  0.13686398  0.92267443    -0.30000
H513        H  0.54203477  0.17780607  0.86628752     0.14200
H514        H  0.54715502  0.12751279  0.96727487     0.14800
C515        C  0.24847416  0.78799578  0.51232795    -0.11700
C516        C  0.28044288  0.82321643  0.51417498    -0.13200
C517        C  0.41168242  0.96574069  0.66837014    -0.14800
C518        C  0.38792219  0.92598820  0.64975407    -0.30000
H519        H  0.40955088  0.98922112  0.64498460     0.14200
H520        H  0.38853610  0.90192161  0.67383381     0.14800
C521        C  0.40448998  0.93890732  0.89480043    -0.14800
C522        C  0.43524015  0.97949133  0.89072460    -0.30000
H523        H  0.40139340  0.91742814  0.86154410     0.14200
H524        H  0.43715209  0.00174008  0.92156985     0.14800
C525        C  0.56021499  0.78174804  0.51235349    -0.11700
C526        C  0.55714540  0.81154300  0.51256470    -0.13200
C527        C  0.53257866  0.94613728  0.60194518    -0.14800
C528        C  0.54246557  0.91725869  0.60926791    -0.30000
H529        H  0.52575734  0.95299185  0.55884542     0.14200
H530        H  0.54748683  0.90882194  0.65231243     0.14800
C531        C  0.58658898  0.94416269  0.90654215    -0.14800
C532        C  0.58743755  0.97956202  0.91016377    -0.30000
H533        H  0.57742968  0.92653421  0.86620600     0.14200
H534        H  0.59619700  0.99680663  0.95082698     0.14800
loop_ 
_geom_bond_atom_site_label_1 
_geom_bond_atom_site_label_2 
_geom_bond_distance 
_geom_bond_site_symmetry_2 
_ccdc_geom_bond_type 
C1            N6   1.373       .  A
C1          N269   1.360   1_554  A
C1          C259   1.435       .  S
N2            C3   1.359       .  A
N2          C268   1.368       .  A
C3            N4   1.345       .  A
C3          C264   1.477       .  S
N4          C272   1.342       .  A
C5            N6   1.365       .  A
C5          N271   1.344       .  A
C5          C261   1.490       .  S
C7            N8   1.353   1_556  A
C7          N279   1.354       .  A
C7          C249   1.423       .  S
N8            C9   1.352       .  A
C9          N277   1.364   1_554  A
C9          C251   1.471       .  S
N10          C11   1.358       .  A
N10         C276   1.357       .  A
C11          N12   1.372       .  A
C11         C254   1.496       .  S
N12         C274   1.373       .  A
O13          C21   1.267   1_545  A
O13         Co33   1.869       .  S
O14          C22   1.259       .  A
O14         Co34   1.990       .  S
O15          C23   1.295       .  A
O15         Co35   2.075       .  S
O16          C24   1.265       .  A
O16         Co36   2.036       .  S
O17          C23   1.271   1_545  A
O17         Co34   1.890       .  S
O18          C24   1.255       .  A
O18         Co33   1.977       .  S
O19          C22   1.265       .  A
O19         Co36   2.016       .  S
O20          C21   1.297       .  A
O20         Co35   2.092       .  S
C21         C265   1.462       .  S
C22         C232   1.485       .  S
C23         C260   1.467       .  S
C24         C236   1.474       .  S
O25          C38   1.271       .  A
O25         Co33   2.015       .  S
O26          C39   1.233   1_545  A
O26         Co34   1.944       .  S
O27          C40   1.257       .  A
O27         Co35   2.008       .  S
O28          C41   1.263       .  A
O28         Co36   1.983       .  S
O29          C41   1.268       .  A
O29         Co34   1.990       .  S
O30          C40   1.256   1_545  A
O30         Co33   1.988       .  S
O31          C38   1.256       .  A
O31         Co36   1.956       .  S
O32          C39   1.256       .  A
O32         Co35   2.021       .  S
Co33         O37   1.914       .  S
Co34         O37   1.906       .  S
Co35         O37   2.277   1_565  S
Co36         O37   2.123       .  S
C38         C245   1.467       .  S
C39         C250   1.469       .  S
C40         C255   1.498       .  S
C41         C240   1.460       .  S
C42          N47   1.367       .  A
C42         N310   1.367   1_554  A
C42         C231   1.429   1_554  S
N43          C44   1.360       .  A
N43         C309   1.366       .  A
C44         N312   1.343       .  A
C44         C244   1.477       .  S
N45          C46   1.344       .  A
N45         C311   1.345   1_554  A
C46          N47   1.356       .  A
C46         C241   1.481       .  S
C48          N53   1.355       .  A
C48         N316   1.353   1_554  A
C48         C228   1.440       .  S
N49          C50   1.359       .  A
N49         C315   1.354       .  A
C50         N318   1.367       .  A
C50         C237   1.477       .  S
N51          C52   1.373   1_556  A
N51         C317   1.370       .  A
C52          N53   1.362       .  A
C52         C233   1.498       .  S
O54          C62   1.263       .  A
O54         Co74   1.973       .  S
O55          C63   1.253   1_455  A
O55         Co75   1.965       .  S
O56          C64   1.267       .  A
O56         Co76   2.008       .  S
O57          C65   1.288       .  A
O57         Co77   2.094       .  S
O58          C64   1.255       .  A
O58         Co75   1.965       .  S
O59          C65   1.270   1_455  A
O59         Co74   1.930       .  S
O60          C63   1.263       .  A
O60         Co77   2.011       .  S
O61          C62   1.278       .  A
O61         Co76   2.036       .  S
C62         C224   1.480       .  S
C63         C196   1.465       .  S
C64         C221   1.464       .  S
C65         C201   1.475       .  S
O66          C79   1.294       .  A
O66         Co74   2.092   1_655  S
O67          C80   1.276       .  A
O67         Co75   2.027       .  S
O68          C81   1.263       .  A
O68         Co76   1.971       .  S
O69          C82   1.273       .  A
O69         Co77   1.970       .  S
O70          C82   1.282   1_455  A
O70         Co75   2.026       .  S
O71          C81   1.271       .  A
O71         Co74   2.008       .  S
O72          C79   1.268       .  A
O72         Co77   1.907       .  S
O73          C80   1.272       .  A
O73         Co76   1.987       .  S
Co74         O78   2.002       .  S
Co75         O78   2.004       .  S
Co76         O78   2.065       .  S
Co77         O78   2.028   1_655  S
C79         C208   1.483       .  S
C80         C213   1.492       .  S
C81         C217   1.471       .  S
C82         C205   1.475       .  S
C83          N88   1.363   1_556  A
C83         N351   1.357       .  A
C83         C194   1.460       .  S
N84          C85   1.363       .  A
N84         C350   1.368       .  A
C85         N353   1.347       .  A
C85         C216   1.485       .  S
N86          C87   1.369       .  A
N86         C352   1.364       .  A
C87          N88   1.368   1_556  A
C87         C212   1.491   1_556  S
C89          N94   1.365       .  A
C89         N357   1.358   1_554  A
C89         C229   1.440       .  S
N90          C91   1.360       .  A
N90         C356   1.362       .  A
C91         N359   1.356       .  A
C91         C209   1.478       .  S
N92          C93   1.358   1_556  A
N92         C358   1.354       .  A
C93          N94   1.364       .  A
C93         C204   1.487       .  S
C95         N100   1.359   1_556  A
C95         N363   1.367       .  A
C95         C192   1.443       .  S
N96          C97   1.361       .  A
N96         C362   1.357       .  A
C97         N365   1.356       .  A
C97         C200   1.470       .  S
N98          C99   1.353       .  A
N98         C364   1.354   1_554  A
C99         N100   1.355       .  A
C99         C197   1.470       .  S
C101        N106   1.357   1_556  A
C101        N369   1.357       .  A
C101        C248   1.423       .  S
N102        C103   1.358       .  A
N102        C368   1.361       .  A
C103        N371   1.357       .  A
C103        C225   1.473       .  S
N104        C105   1.352       .  A
N104        C370   1.355   1_554  A
C105        N106   1.353       .  A
C105        C220   1.458       .  S
O107        C115   1.268       .  A
O107       Co127   1.861       .  S
O108        C116   1.266       .  A
O108       Co128   1.973       .  S
O109        C117   1.250       .  A
O109       Co129   1.966       .  S
O110        C118   1.274       .  A
O110       Co130   2.020       .  S
O111        C117   1.263       .  A
O111       Co128   2.012       .  S
O112        C118   1.272       .  A
O112       Co127   1.990       .  S
O113        C116   1.270       .  A
O113       Co130   1.989       .  S
O114        C115   1.298       .  A
O114       Co129   2.082       .  S
C115        C189   1.452       .  S
C116        C161   1.458       .  S
C117        C184   1.475       .  S
C118        C164   1.494       .  S
O119        C132   1.262       .  A
O119       Co127   1.963       .  S
O120        C133   1.266       .  A
O120       Co128   1.867       .  S
O121        C134   1.249       .  A
O121       Co129   1.975       .  S
O122        C135   1.270       .  A
O122       Co130   2.002       .  S
O123        C135   1.268       .  A
O123       Co128   1.986       .  S
O124        C134   1.260       .  A
O124       Co127   2.009       .  S
O125        C132   1.263       .  A
O125       Co130   1.980       .  S
O126        C133   1.300       .  A
O126       Co129   2.096       .  S
Co127       O131   1.890       .  S
Co128       O131   1.887       .  S
Co129       O131   2.146       .  S
Co130       O131   2.038       .  S
C132        C172   1.451       .  S
C133        C176   1.464       .  S
C134        C180   1.479       .  S
C135        C169   1.480       .  S
C136        N141   1.367       .  A
C136        N404   1.364       .  A
C136        C230   1.450       .  S
N137        C138   1.354       .  A
N137        C403   1.363   1_554  A
C138        N406   1.348   1_554  A
C138        C188   1.477       .  S
N139        C140   1.352       .  A
N139        C405   1.351       .  A
C140        N141   1.363       .  A
C140        C185   1.481       .  S
C142        N143   1.357       .  A
C142        N414   1.367       .  A
C142        C462   1.432       .  S
N143        C144   1.351       .  A
C144        N412   1.353       .  A
C144        C160   1.473       .  S
N145        C146   1.362   1_556  A
N145        C411   1.364       .  A
C146        N147   1.366       .  A
C146        C165   1.493       .  S
N147        C409   1.365   1_554  A
C148        N153   1.364       .  A
C148        N416   1.367       .  A
C148        C460   1.444       .  S
N149        C150   1.362       .  A
N149        C415   1.364   1_554  A
C150        N151   1.357       .  A
C150        C181   1.484       .  S
N151        C419   1.355   1_554  A
C152        N153   1.358       .  A
C152        N418   1.355       .  A
C152        C177   1.483       .  S
C154        N155   1.361       .  A
C154        N426   1.363       .  A
C154        C525   1.444       .  S
N155        C156   1.359       .  A
C156        N424   1.357       .  A
C156        C168   1.480       .  S
N157        C158   1.349       .  A
N157        C423   1.348   1_554  A
C158        N159   1.350       .  A
C158        C173   1.470       .  S
N159        C421   1.358       .  A
C160        C161   1.339       .  D
C160        H162   1.087       .  S
C161        H163   1.088       .  S
C164        C165   1.354       .  D
C164        H166   1.086       .  S
C165        H167   1.086       .  S
C168        C169   1.349       .  D
C168        H170   1.089       .  S
C169        H171   1.089       .  S
C172        C173   1.340       .  D
C172        H174   1.085       .  S
C173        H175   1.085       .  S
C176        C177   1.344       .  D
C176        H178   1.086       .  S
C177        H179   1.085       .  S
C180        C181   1.350       .  D
C180        H182   1.088       .  S
C181        H183   1.087       .  S
C184        C185   1.351       .  D
C184        H186   1.088       .  S
C185        H187   1.086       .  S
C188        C189   1.343       .  D
C188        H190   1.089       .  S
C189        H191   1.090       .  S
C192        C193   1.211       .  T
C193        C415   1.444       .  S
C194        C195   1.221       .  T
C195        C409   1.461       .  S
C196        C197   1.338       .  D
C196        H198   1.088       .  S
C197        H199   1.086       .  S
C200        C201   1.344       .  D
C200        H202   1.087       .  S
C201        H203   1.087       .  S
C204        C205   1.350       .  D
C204        H206   1.083       .  S
C205        H207   1.084       .  S
C208        C209   1.347       .  D
C208        H210   1.087       .  S
C209        H211   1.088       .  S
C212        C213   1.353       .  D
C212        H214   1.085       .  S
C213        H215   1.084       .  S
C216        C217   1.355       .  D
C216        H218   1.086       .  S
C217        H219   1.086       .  S
C220        C221   1.338       .  D
C220        H222   1.087       .  S
C221        H223   1.088       .  S
C224        C225   1.343       .  D
C224        H226   1.088       .  S
C225        H227   1.087       .  S
C228        C229   1.208       .  T
C230        C498   1.214       .  T
C231        C497   1.202       .  T
C232        C233   1.358       .  D
C232        H234   1.084       .  S
C233        H235   1.085       .  S
C236        C237   1.346       .  D
C236        H238   1.087       .  S
C237        H239   1.087       .  S
C240        C241   1.350       .  D
C240        H242   1.088       .  S
C241        H243   1.086       .  S
C244        C245   1.355       .  D
C244        H246   1.088       .  S
C245        H247   1.089       .  S
C248        C249   1.199       .  T
C250        C251   1.334       .  D
C250        H252   1.089       .  S
C251        H253   1.088       .  S
C254        C255   1.347       .  D
C254        H256   1.091       .  S
C255        H257   1.090       .  S
C258        C421   1.435       .  S
C258        C259   1.206       .  T
C260        C261   1.358       .  D
C260        H262   1.088       .  S
C261        H263   1.088       .  S
C264        C265   1.348       .  D
C264        H266   1.085       .  S
C265        H267   1.088       .  S
C268        N273   1.369       .  A
C268        C526   1.444       .  S
N269        C270   1.351       .  A
C270        N271   1.344   1_556  A
C270        C531   1.470       .  S
C272        N273   1.361       .  A
C272        C528   1.479       .  S
C274        N275   1.359       .  A
C274        C516   1.457       .  S
N275        C276   1.356       .  A
C276        C518   1.478       .  S
N277        C278   1.362       .  A
C278        N279   1.356       .  A
C278        C521   1.474       .  S
O280        C288   1.266   1_545  A
O280       Co300   1.988       .  S
O281        C289   1.239       .  A
O281       Co301   1.968       .  S
O282        C290   1.260       .  A
O282       Co302   1.960       .  S
O283        C291   1.262       .  A
O283       Co303   2.016       .  S
O284        C290   1.275       .  A
O284       Co301   2.022   1_565  S
O285        C291   1.242       .  A
O285       Co300   1.952       .  S
O286        C289   1.254       .  A
O286       Co303   2.014       .  S
O287        C288   1.257       .  A
O287       Co302   1.965       .  S
C288        C532   1.453       .  S
C289        C499   1.484       .  S
C290        C527   1.466       .  S
C291        C503   1.474       .  S
O292        C305   1.260       .  A
O292       Co300   1.849       .  S
O293        C306   1.253   1_545  A
O293       Co301   1.975       .  S
O294        C307   1.268       .  A
O294       Co302   2.009       .  S
O295        C308   1.301       .  A
O295       Co303   2.085       .  S
O296        C308   1.275       .  A
O296       Co301   1.883       .  S
O297        C307   1.259   1_545  A
O297       Co300   1.975       .  S
O298        C305   1.297       .  A
O298       Co303   2.103       .  S
O299        C306   1.264       .  A
O299       Co302   2.019       .  S
Co300       O304   1.942       .  S
Co301       O304   1.904       .  S
Co302       O304   2.115   1_565  S
Co303       O304   2.251       .  S
C305        C512   1.459       .  S
C306        C517   1.478       .  S
C307        C522   1.475       .  S
C308        C507   1.469       .  S
C309        N314   1.370       .  A
C309        C498   1.450       .  S
N310        C311   1.357       .  A
C311        C511   1.484       .  S
N312        C313   1.347       .  A
C313        N314   1.363       .  A
C313        C508   1.479       .  S
C315        N320   1.352       .  A
C315        C495   1.438       .  S
N316        C317   1.357       .  A
C317        C504   1.486       .  S
N318        C319   1.369       .  A
C319        N320   1.357       .  A
C319        C500   1.481       .  S
O321        C329   1.263       .  A
O321       Co341   2.003       .  S
O322        C330   1.270       .  A
O322       Co342   2.015   1_655  S
O323        C331   1.243       .  A
O323       Co343   1.979       .  S
O324        C332   1.273       .  A
O324       Co344   1.962       .  S
O325        C331   1.255       .  A
O325       Co342   2.048       .  S
O326        C332   1.285       .  A
O326       Co341   2.039   1_655  S
O327        C330   1.265       .  A
O327       Co344   1.978       .  S
O328        C329   1.256       .  A
O328       Co343   1.960       .  S
C329        C491   1.464       .  S
C330        C463   1.471       .  S
C331        C488   1.494       .  S
C332        C468   1.472       .  S
O333        C346   1.247       .  A
O333       Co341   1.960   1_655  S
O334        C347   1.271       .  A
O334       Co342   1.835       .  S
O335        C348   1.265       .  A
O335       Co343   2.035       .  S
O336        C349   1.281       .  A
O336       Co344   2.046       .  S
O337        C349   1.269       .  A
O337       Co342   1.956   1_655  S
O338        C348   1.258       .  A
O338       Co341   1.969       .  S
O339        C346   1.256       .  A
O339       Co344   2.020       .  S
O340        C347   1.311       .  A
O340       Co343   2.135       .  S
Co341       O345   2.057       .  S
Co342       O345   1.968       .  S
Co343       O345   2.134       .  S
Co344       O345   2.104   1_655  S
C346        C475   1.472       .  S
C347        C480   1.452       .  S
C348        C484   1.474       .  S
C349        C472   1.482       .  S
C350        N355   1.357       .  A
C350        C461   1.432       .  S
N351        C352   1.362       .  A
C352        C483   1.489       .  S
N353        C354   1.351       .  A
C354        N355   1.350       .  A
C354        C479   1.462       .  S
C356        N361   1.363       .  A
C356        C496   1.439       .  S
N357        C358   1.354       .  A
C358        C476   1.467       .  S
N359        C360   1.356       .  A
C360        N361   1.359       .  A
C360        C471   1.476       .  S
C362        N367   1.357       .  A
C362        C459   1.445       .  S
N363        C364   1.365       .  A
C364        C467   1.487       .  S
N365        C366   1.357       .  A
C366        N367   1.362       .  A
C366        C464   1.464       .  S
C368        N373   1.371       .  A
C368        C515   1.458       .  S
N369        C370   1.356       .  A
C370        C492   1.470       .  S
N371        C372   1.359       .  A
C372        N373   1.370       .  A
C372        C487   1.502       .  S
O374        C382   1.274       .  A
O374       Co394   2.025       .  S
O375        C383   1.295       .  A
O375       Co395   2.108       .  S
O376        C384   1.257       .  A
O376       Co396   1.973       .  S
O377        C385   1.271       .  A
O377       Co397   1.976       .  S
O378        C384   1.264       .  A
O378       Co395   1.992       .  S
O379        C385   1.278       .  A
O379       Co394   2.017       .  S
O380        C383   1.270       .  A
O380       Co397   1.915       .  S
O381        C382   1.260       .  A
O381       Co396   1.956       .  S
C382        C456   1.472       .  S
C383        C428   1.488       .  S
C384        C451   1.462       .  S
C385        C431   1.469       .  S
O386        C399   1.258       .  A
O386       Co394   1.970       .  S
O387        C400   1.269       .  A
O387       Co395   1.974       .  S
O388        C401   1.273       .  A
O388       Co396   2.034       .  S
O389        C402   1.298       .  A
O389       Co397   2.127       .  S
O390        C402   1.262       .  A
O390       Co395   1.877       .  S
O391        C401   1.262       .  A
O391       Co394   1.970       .  S
O392        C399   1.264       .  A
O392       Co397   2.016       .  S
O393        C400   1.272       .  A
O393       Co396   2.012       .  S
Co394       O398   2.018       .  S
Co395       O398   1.988       .  S
Co396       O398   2.071       .  S
Co397       O398   2.055       .  S
C399        C439   1.483       .  S
C400        C443   1.473       .  S
C401        C447   1.483       .  S
C402        C436   1.478       .  S
C403        N408   1.366       .  A
C403        C497   1.429       .  S
N404        C405   1.361       .  A
C405        C455   1.480       .  S
N406        C407   1.344       .  A
C407        N408   1.358       .  A
C407        C452   1.483       .  S
C409        N410   1.363       .  A
N410        C411   1.364       .  A
C411        C427   1.493       .  S
N412        C413   1.352       .  A
C413        N414   1.363       .  A
C413        C432   1.488       .  S
C415        N420   1.361       .  A
N416        C417   1.362       .  A
C417        N418   1.350       .  A
C417        C448   1.483       .  S
C419        N420   1.360       .  A
C419        C444   1.477       .  S
C421        N422   1.372   1_554  A
N422        C423   1.365       .  A
C423        C435   1.493       .  S
N424        C425   1.358       .  A
C425        N426   1.362       .  A
C425        C440   1.475       .  S
C427        C428   1.349       .  D
C427        H429   1.088       .  S
C428        H430   1.089       .  S
C431        C432   1.351       .  D
C431        H433   1.087       .  S
C432        H434   1.086       .  S
C435        C436   1.354       .  D
C435        H437   1.084       .  S
C436        H438   1.086       .  S
C439        C440   1.347       .  D
C439        H441   1.088       .  S
C440        H442   1.088       .  S
C443        C444   1.343       .  D
C443        H445   1.085       .  S
C444        H446   1.087       .  S
C447        C448   1.349       .  D
C447        H449   1.088       .  S
C448        H450   1.086       .  S
C451        C452   1.353       .  D
C451        H453   1.082       .  S
C452        H454   1.082       .  S
C455        C456   1.352       .  D
C455        H457   1.089       .  S
C456        H458   1.089       .  S
C459        C460   1.211       .  T
C461        C462   1.204       .  T
C463        C464   1.342       .  D
C463        H465   1.087       .  S
C464        H466   1.086       .  S
C467        C468   1.353       .  D
C467        H469   1.087       .  S
C468        H470   1.087       .  S
C471        C472   1.347       .  D
C471        H473   1.088       .  S
C472        H474   1.089       .  S
C475        C476   1.342       .  D
C475        H477   1.088       .  S
C476        H478   1.087       .  S
C479        C480   1.336       .  D
C479        H481   1.085       .  S
C480        H482   1.088       .  S
C483        C484   1.352       .  D
C483        H485   1.087       .  S
C484        H486   1.087       .  S
C487        C488   1.357       .  D
C487        H489   1.088       .  S
C488        H490   1.088       .  S
C491        C492   1.342       .  D
C491        H493   1.091       .  S
C492        H494   1.091       .  S
C495        C496   1.208       .  T
C499        C500   1.344       .  D
C499        H501   1.087       .  S
C500        H502   1.087       .  S
C503        C504   1.354       .  D
C503        H505   1.086       .  S
C504        H506   1.086       .  S
C507        C508   1.350       .  D
C507        H509   1.088       .  S
C508        H510   1.085       .  S
C511        C512   1.350       .  D
C511        H513   1.083       .  S
C512        H514   1.084       .  S
C515        C516   1.219       .  T
C517        C518   1.345       .  D
C517        H519   1.086       .  S
C518        H520   1.085       .  S
C521        C522   1.341       .  D
C521        H523   1.087       .  S
C522        H524   1.087   1_565  S
C525        C526   1.211       .  T
C527        C528   1.356       .  D
C527        H529   1.086       .  S
C528        H530   1.085       .  S
C531        C532   1.345       .  D
C531        H533   1.087       .  S
C532        H534   1.087       .  S
