geometry optimzed in LAMMPS
_audit_creation_date              2020-12-01 
_audit_creation_method            'lammps2cif' 
_symmetry_space_group_name_H-M    'P1' 
_symmetry_Int_Tables_number       1 
_symmetry_cell_setting            triclinic 
loop_ 
_symmetry_equiv_pos_as_xyz 
  x,y,z 
_cell_length_a                    68.7514024 
_cell_length_b                    68.98500881766077 
_cell_length_c                    40.75652766256326 
_cell_angle_alpha                 85.93837340171876 
_cell_angle_beta                  91.17888414143718 
_cell_angle_gamma                 125.55538800056037 
loop_ 
_atom_site_label 
_atom_site_type_symbol 
_atom_site_fract_x 
_atom_site_fract_y 
_atom_site_fract_z 
_atom_site_charge 
N1          N  0.57473016  0.91079202  0.41838359    -0.02600
C2          C  0.58175350  0.89672731  0.42972842     0.00000
C3          C  0.59576041  0.90587840  0.95709923    -0.22900
C4          C  0.59664915  0.92550474  0.96383641    -0.23100
C5          C  0.58371565  0.92807584  0.93990651    -0.00100
H6          H  0.60227621  0.89753880  0.97269907     0.13700
H7          H  0.60444015  0.93580143  0.98514731     0.13700
N8          N  0.32883187  0.91684222  0.43250745    -0.02600
C9          C  0.30476975  0.90448945  0.43614687     0.00000
C10         C  0.29601832  0.91135818  0.41032284    -0.22900
C11         C  0.31517422  0.92777096  0.38978434    -0.23100
C12         C  0.33495254  0.93073213  0.40416351    -0.00100
H13         H  0.27740605  0.90342060  0.40518947     0.13700
H14         H  0.31452726  0.93542926  0.36604068     0.13700
C15         C  0.54644028  0.99622939  0.23993715     0.43400
N16         N  0.53314250  0.00747027  0.20043786     0.02200
C17         C  0.59573847  0.11349392  0.10109823    -0.05600
H18         H  0.58950571  0.12375728  0.22529142     0.07700
C19         C  0.50036243  0.07935195  0.21237194    -0.06000
Co20       Co  0.57197378  0.05309586  0.16401661     0.74200
N21         N  0.57888937  0.09401606  0.19670625    -0.25200
Co22       Co  0.55876829  0.09475252  0.15800682     0.74100
C23         C  0.51913052  0.10113189  0.22737760     0.43500
N24         N  0.48447665  0.02287740  0.19522259     0.01900
N25         N  0.53486224  0.09279728  0.19090112     0.02000
N26         N  0.60429660  0.08633451  0.10502566    -0.46000
H27         H  0.58497114  0.02965776  0.23012399     0.07700
N28         N  0.58394931  0.07818051  0.19880199     0.02300
N29         N  0.53778239  0.09317794  0.11878406     0.02000
C30         C  0.52657958  0.09775770  0.07121089     0.43600
N31         N  0.48941088  0.00695304  0.19837258    -0.24600
C32         C  0.56893493  0.02816157  0.10185254    -0.05500
N33         N  0.52670040  0.98975489  0.22294842    -0.45700
N34         N  0.54553515  0.10707271  0.09104887    -0.45900
C35         C  0.54971393  0.00907201  0.08360963     0.43400
N36         N  0.58768772  0.08105486  0.12711898     0.02200
N37         N  0.49010113  0.00669496  0.12687004    -0.24600
N38         N  0.55611171  0.02501582  0.20090647    -0.25100
N39         N  0.48503955  0.02244069  0.12375795     0.01900
H40         H  0.47694822  0.97425703  0.10340835     0.07800
H41         H  0.48780513  0.06524986  0.08174790     0.07800
N42         N  0.58247166  0.09669808  0.12525121    -0.25200
N43         N  0.51184674  0.07550837  0.19030108    -0.24800
N44         N  0.53509174  0.01068755  0.12821145     0.02200
C45         C  0.60164630  0.09947573  0.23952878     0.43600
C46         C  0.47927398  0.99350961  0.22663807    -0.06000
N47         N  0.51476447  0.07558247  0.11837717    -0.24800
H48         H  0.48118219  0.06893733  0.21620003     0.07800
N49         N  0.59764911  0.08093694  0.22388002    -0.46000
H50         H  0.48014781  0.97899992  0.23608491     0.07800
C51         C  0.46392528  0.99746346  0.08768544     0.43500
C52         C  0.56607926  0.01953153  0.22515936    -0.05500
Co53       Co  0.51160601  0.00732323  0.16363854     0.73800
N54         N  0.47145001  0.02121900  0.22001399    -0.45700
C55         C  0.61003912  0.10650468  0.08763864     0.43700
N56         N  0.52926510  0.99861257  0.10154472    -0.45700
Co57       Co  0.49850924  0.04907974  0.15676286     0.73900
C58         C  0.50602989  0.07728622  0.08945455    -0.06000
C59         C  0.58937556  0.10832313  0.22148726    -0.05600
N60         N  0.55815146  0.02815472  0.12877435    -0.25100
N61         N  0.53993887  0.10869459  0.21222423    -0.45900
H62         H  0.59591379  0.12907621  0.09459756     0.07800
C63         C  0.47757063  0.99018143  0.10518331    -0.06000
Cl64       Cl  0.53522367  0.05105803  0.16077486    -0.49000
C65         C  0.46759047  0.00325319  0.24083830     0.43500
H66         H  0.58770562  0.04056043  0.09521256     0.07700
N67         N  0.46917116  0.01743541  0.10069180    -0.45700
N68         N  0.51279790  0.20544392  0.37687398    -0.02600
C69         C  0.51380372  0.22541366  0.38136200     0.00000
C70         C  0.52358589  0.23400995  0.41150189    -0.22900
C71         C  0.52782343  0.21843764  0.92634707    -0.23100
C72         C  0.52194310  0.20179806  0.40466592    -0.00100
H73         H  0.52501076  0.24854129  0.42271547     0.13700
H74         H  0.53464097  0.21931984  0.95078194     0.13700
N75         N  0.74485946  0.19635707  0.41851395    -0.02600
C76         C  0.76890462  0.21121336  0.42225951     0.00000
C77         C  0.78079576  0.21588366  0.39263698    -0.22900
C78         C  0.76353160  0.20347053  0.36982486    -0.23100
C79         C  0.74170814  0.19164483  0.38633394    -0.00100
H80         H  0.79993125  0.22746041  0.38802581     0.13700
H81         H  0.76651214  0.20344005  0.34386878     0.13700
C82         C  0.07355218  0.51884525  0.44166312     0.43400
N83         N  0.04786839  0.51198776  0.40495607     0.02200
C84         C  0.04374906  0.59436643  0.30399697    -0.05600
H85         H  0.03940294  0.60337577  0.42908406     0.07700
C86         C  0.95917213  0.51858806  0.43514689    -0.06000
Co87       Co  0.06137754  0.55673645  0.36633239     0.74200
N88         N  0.04378383  0.58031034  0.40206639    -0.25200
Co89       Co  0.01588777  0.56469450  0.36913301     0.74100
C90         C  0.96694566  0.54120163  0.44812220     0.43500
N91         N  0.97708110  0.48247634  0.41193304     0.01900
N92         N  0.99034439  0.54801398  0.40777818     0.02000
N93         N  0.07256302  0.58803095  0.30333277    -0.46000
H94         H  0.09615651  0.55931906  0.42815078     0.07700
N95         N  0.06097252  0.57719986  0.40096402     0.02300
N96         N  0.98813932  0.54813410  0.33604327     0.02000
C97         C  0.96376330  0.54103308  0.29739263     0.43600
N98         N  0.99431773  0.47943545  0.41040042    -0.24600
C99         C  0.07628142  0.54238349  0.30602990    -0.05500
N100        N  0.05349952  0.50127337  0.42745630    -0.45700
N101        N  0.98383529  0.55865093  0.31138584    -0.45900
C102        C  0.06790198  0.52008730  0.29157098     0.43400
N103        N  0.05831631  0.57712326  0.32961948     0.02200
N104        N  0.99205444  0.48054961  0.33874415    -0.24600
N105        N  0.06339227  0.53545853  0.40305702    -0.25100
N106        N  0.97458647  0.48323067  0.34027225     0.01900
H107        H  0.99869006  0.46088006  0.30750994     0.07800
H108        H  0.94051931  0.50063897  0.31189659     0.07800
N109        N  0.04122961  0.58038661  0.33059915    -0.25200
N110        N  0.97472764  0.52455052  0.41044911    -0.24800
N111        N  0.04522737  0.51256701  0.33317123     0.02200
C112        C  0.07209093  0.60240718  0.43737065     0.43600
C113        C  0.99073723  0.46357182  0.43492477    -0.06000
N114        N  0.97213645  0.52474941  0.33891763    -0.24800
H115        H  0.94317505  0.50088479  0.44129835     0.07800
N116        N  0.07829430  0.59019001  0.42151163    -0.46000
H117        H  0.00122426  0.45655463  0.43896889     0.07800
C118        C  0.96601743  0.46179828  0.29956479     0.43500
C119        C  0.08028215  0.54149710  0.42537307    -0.05500
Co120      Co  0.01982452  0.49564231  0.37186695     0.73800
N121        N  0.96154585  0.46928534  0.43647511    -0.45700
C122        C  0.06438839  0.59911565  0.28593982     0.43700
N123        N  0.04868008  0.50231171  0.30982824    -0.45700
Co124      Co  0.97412274  0.50339664  0.37558688     0.73900
C125        C  0.95589512  0.51857346  0.31559039    -0.06000
C126        C  0.04921573  0.59597456  0.42446216    -0.05600
N127        N  0.06112934  0.53594654  0.33145618    -0.25100
N128        N  0.98604896  0.55867821  0.42941402    -0.45900
H129        H  0.03245622  0.60024544  0.29796784     0.07800
C130        C  0.98801624  0.46700876  0.31394423    -0.06000
Cl131      Cl  0.01777870  0.53009265  0.37092682    -0.49000
C132        C  0.96905866  0.45697961  0.45226318     0.43500
H133        H  0.09168269  0.56031567  0.29920805     0.07700
N134        N  0.95836445  0.47190004  0.31760277    -0.45700
N135        N  0.16987248  0.49598658  0.10838931    -0.02600
C136        C  0.18853444  0.49392694  0.10942486     0.00000
C137        C  0.19227471  0.48917361  0.14157340    -0.22900
C138        C  0.17635272  0.48912689  0.16110783    -0.23100
C139        C  0.16274514  0.49325634  0.14051846    -0.00100
H140        H  0.20608988  0.48718615  0.15007051     0.13700
H141        H  0.17519292  0.48689596  0.18770927     0.13700
N142        N  0.87794206  0.32029436  0.12580242    -0.02600
C143        C  0.86340578  0.29642970  0.12179257     0.00000
C144        C  0.85959289  0.28356404  0.15153013    -0.22900
C145        C  0.87170887  0.29984185  0.17473986    -0.23100
C146        C  0.88273828  0.32215098  0.15845961    -0.00100
H147        H  0.84817935  0.26432943  0.15610658     0.13700
H148        H  0.87165452  0.29585770  0.20091325     0.13700
N149        N  0.85259576  0.54051946  0.09692260    -0.02600
C150        C  0.82989652  0.53459589  0.09622492     0.00000
C151        C  0.81813975  0.52299133  0.12604907    -0.22900
C152        C  0.83395252  0.52203831  0.14585805    -0.23100
C153        C  0.85482278  0.53285400  0.12751119    -0.00100
H154        H  0.80058356  0.51771658  0.13356332     0.13700
H155        H  0.83100355  0.51533320  0.17141102     0.13700
N156        N  0.17683933  0.73437655  0.58472130    -0.02600
C157        C  0.19366920  0.75842902  0.58345904     0.00000
C158        C  0.19780322  0.76624171  0.11505518    -0.22900
C159        C  0.18305649  0.74672909  0.13620894    -0.23100
C160        C  0.17033634  0.72736674  0.11726034    -0.00100
H161        H  0.21039327  0.78442761  0.12168046     0.13700
H162        H  0.18185802  0.74656738  0.16267499     0.13700
C163        C  0.58454104  0.55127110  0.11159360     0.43400
N164        N  0.56798235  0.55715910  0.15023957     0.02200
C165        C  0.47264612  0.46717322  0.25106059    -0.05600
H166        H  0.45478092  0.46554411  0.12424041     0.07700
C167        C  0.46836328  0.54735232  0.13307086    -0.06000
Co168      Co  0.53225451  0.51094783  0.18891649     0.74200
N169        N  0.48579298  0.48694269  0.15404509    -0.25200
Co170      Co  0.47641161  0.50030793  0.19098228     0.74100
C171        C  0.44988456  0.52517253  0.11894086     0.43500
N172        N  0.52879401  0.58443539  0.15294094     0.01900
N173        N  0.46772619  0.51767782  0.15596062     0.02000
N174        N  0.50943022  0.47502794  0.24862987    -0.46000
H175        H  0.56206656  0.51096535  0.12558345     0.07700
N176        N  0.50710563  0.49104200  0.15387248     0.02300
N177        N  0.46858091  0.51475737  0.22783574     0.02000
C178        C  0.45261904  0.51933941  0.26858623     0.43600
N179        N  0.55005623  0.58850347  0.15067643    -0.24600
C180        C  0.56451967  0.52509233  0.25035943    -0.05500
N181        N  0.58502549  0.56840513  0.12683483    -0.45700
N182        N  0.45231994  0.50283823  0.25207204    -0.45900
C183        C  0.58147756  0.54719532  0.26583830     0.43400
N184        N  0.50708726  0.48806437  0.22568715     0.02200
N185        N  0.55121599  0.58575850  0.22270261    -0.24600
N186        N  0.55705532  0.53382050  0.15186938    -0.25100
N187        N  0.52990034  0.58150129  0.22466119     0.01900
H188        H  0.58295178  0.60605463  0.25133147     0.07800
H189        H  0.47473796  0.56000194  0.25681362     0.07800
N190        N  0.48572968  0.48377585  0.22640215    -0.25200
N191        N  0.47844701  0.54097173  0.15573161    -0.24800
N192        N  0.56825646  0.55506975  0.22258093     0.02200
C193        C  0.48948742  0.46879379  0.11366107     0.43600
C194        C  0.56269987  0.60561229  0.12619244    -0.06000
N195        N  0.47934206  0.53806417  0.22736884    -0.24800
H196        H  0.47234198  0.56498527  0.12871675     0.07800
N197        N  0.50995677  0.48051790  0.13042570    -0.46000
H198        H  0.58128666  0.61390377  0.11983023     0.07800
C199        C  0.54908819  0.60356642  0.26444148     0.43500
C200        C  0.56623054  0.52846676  0.12849194    -0.05500
Co201      Co  0.55999094  0.57214242  0.18621935     0.73800
N202        N  0.52613494  0.59796567  0.13139820    -0.45700
C203        C  0.48863083  0.46179166  0.26608430     0.43700
N204        N  0.58325464  0.56512441  0.24704577    -0.45700
Co205      Co  0.50401018  0.56148275  0.19021710     0.73900
C206        C  0.47030735  0.54264620  0.25204622    -0.06000
C207        C  0.47326785  0.47293255  0.12939587    -0.05600
N208        N  0.55715324  0.53168851  0.22393363    -0.25100
N209        N  0.45020240  0.50743993  0.13463472    -0.45900
H210        H  0.45400945  0.45910665  0.25672971     0.07800
C211        C  0.56458920  0.59951214  0.24687792    -0.06000
Cl212      Cl  0.51815664  0.53623488  0.18894799    -0.49000
C213        C  0.54666399  0.61184138  0.11345237     0.43500
H214        H  0.55892125  0.50712844  0.25761593     0.07700
N215        N  0.52791577  0.59195182  0.24914844    -0.45700
N216        N  0.47012366  0.34149724  0.43818246    -0.02600
C217        C  0.46995340  0.32158404  0.44017796     0.00000
C218        C  0.46593594  0.31215998  0.47240968    -0.22900
C219        C  0.46372937  0.32664515  0.49095805    -0.23100
C220        C  0.46629845  0.34453190  0.46962835    -0.00100
H221        H  0.46558364  0.29684577  0.48160021     0.13700
H222        H  0.46008126  0.32405235  0.01726261     0.13700
N223        N  0.32573559  0.49989515  0.45727773    -0.02600
C224        C  0.30495858  0.49830457  0.45739829     0.00000
C225        C  0.29474905  0.49285005  0.42681701    -0.22900
C226        C  0.30953150  0.49127002  0.40701667    -0.23100
C227        C  0.32834804  0.49561073  0.42600335    -0.00100
H228        H  0.27845362  0.49079979  0.41951087     0.13700
H229        H  0.30713910  0.48786397  0.38121340     0.13700
N230        N  0.70180824  0.55603571  0.46076491    -0.02600
C231        C  0.72290006  0.55826137  0.46281399     0.00000
C232        C  0.72985612  0.55655435  0.43213900    -0.22900
C233        C  0.71313892  0.55368780  0.41038973    -0.23100
C234        C  0.69615644  0.55336890  0.42829921    -0.00100
H235        H  0.74573720  0.55761482  0.42617612     0.13700
H236        H  0.71339647  0.55218143  0.38417506     0.13700
N237        N  0.57714996  0.73581077  0.43279550    -0.02600
C238        C  0.58567921  0.75945634  0.43116043     0.00000
C239        C  0.60203815  0.77184164  0.40524571    -0.22900
C240        C  0.60355920  0.75574810  0.39001659    -0.23100
C241        C  0.58817725  0.73394574  0.40707850    -0.00100
H242        H  0.61016011  0.79023114  0.39633934     0.13700
H243        H  0.61325140  0.75913420  0.36727556     0.13700
C244        C  0.41774907  0.49981456  0.35008543    -0.04600
C245        C  0.40143673  0.50560925  0.34322863     0.09600
C246        C  0.40127740  0.51500535  0.31133551    -0.01900
C247        C  0.41800148  0.51955008  0.28692877    -0.00200
C248        C  0.43444352  0.51388086  0.29383601    -0.03800
C249        C  0.43396741  0.50365220  0.32532873     0.03200
C250        C  0.38449635  0.50219932  0.36948764     0.10000
C251        C  0.38369984  0.51981150  0.30360976     0.35900
C252        C  0.45075130  0.49782074  0.33260915     0.39400
C253        C  0.38884731  0.52213824  0.38451682    -0.04200
C254        C  0.37116867  0.51975080  0.40511023     0.03000
C255        C  0.34907477  0.49722197  0.41141408    -0.03800
C256        C  0.34513790  0.47711328  0.39702370     0.00000
C257        C  0.36296368  0.47953696  0.37677728    -0.02600
C258        C  0.41112570  0.54543901  0.37719697     0.36700
C259        C  0.32197612  0.45421131  0.40061838     0.40300
C260        C  0.37476504  0.54111009  0.41605670     0.39400
C261        C  0.35869988  0.45887769  0.36205313     0.36300
C262        C  0.41803407  0.49023284  0.38278171     0.37000
C263        C  0.41813992  0.52992446  0.25463690     0.40300
N264        N  0.37813609  0.55866123  0.42360477    -0.37800
N265        N  0.42887060  0.56399495  0.37114563    -0.39400
N266        N  0.30346170  0.43594509  0.40292175    -0.37100
N267        N  0.35539243  0.44239946  0.35043494    -0.39500
N268        N  0.36958730  0.52352366  0.29748215    -0.39300
N269        N  0.41834128  0.53837658  0.22897160    -0.36900
N270        N  0.46416763  0.49316950  0.33845520    -0.38000
N271        N  0.41821737  0.48258428  0.40889894    -0.39600
C272        C  0.39010683  0.51061513  0.08923510    -0.04600
C273        C  0.39454451  0.51562746  0.05492768     0.09600
C274        C  0.41718715  0.52383386  0.04182515    -0.01900
C275        C  0.43526650  0.52702477  0.06286477    -0.00200
C276        C  0.43070125  0.52161755  0.09706516    -0.03800
C277        C  0.40805750  0.51335685  0.11022754     0.03200
C278        C  0.37502197  0.51098971  0.03219748     0.10000
C279        C  0.42170819  0.52864507  0.00656139     0.35900
C280        C  0.40321020  0.50759055  0.14534232     0.39400
C281        C  0.37222828  0.52923487  0.02233701    -0.04200
C282        C  0.35487990  0.52516144  0.99902377     0.03000
C283        C  0.34099220  0.50315253  0.48468921    -0.03800
C284        C  0.34306683  0.48453672  0.49582870     0.00000
C285        C  0.35980277  0.48839995  0.01959088    -0.02600
C286        C  0.38758162  0.55235577  0.03582871     0.36700
C287        C  0.32736522  0.46109226  0.48359909     0.40300
C288        C  0.35214779  0.54404701  0.98970379     0.39400
C289        C  0.36162038  0.46915185  0.03126355     0.36300
C290        C  0.36701333  0.50255141  0.10281537     0.37000
C291        C  0.45848032  0.53541491  0.04930433     0.40300
N292        N  0.35130301  0.56002466  0.48325746    -0.37800
N293        N  0.39990056  0.57080189  0.04658849    -0.39400
N294        N  0.31473940  0.44194880  0.47506606    -0.37100
N295        N  0.36306069  0.45383939  0.04082487    -0.39500
N296        N  0.42554411  0.53330370  0.47873074    -0.39300
N297        N  0.47703061  0.54206686  0.03865871    -0.36900
N298        N  0.39927005  0.50282159  0.17333365    -0.38000
N299        N  0.34859133  0.49619549  0.11360007    -0.39600
C300        C  0.55990378  0.68482809  0.34805188    -0.04600
C301        C  0.56983582  0.67239139  0.35787819     0.09600
C302        C  0.58456982  0.67908082  0.38549678    -0.01900
C303        C  0.58975863  0.69852752  0.40290450    -0.00200
C304        C  0.58020215  0.71131333  0.39262207    -0.03800
C305        C  0.56534126  0.70441694  0.36498879     0.03200
C306        C  0.56626739  0.65368261  0.33695463     0.10000
C307        C  0.59518415  0.66656599  0.39497453     0.35900
C308        C  0.55692117  0.71846797  0.35241959     0.39400
C309        C  0.58249359  0.66031880  0.31066764    -0.04200
C310        C  0.57720246  0.64390564  0.28720879     0.03000
C311        C  0.55574306  0.62050424  0.29027755    -0.03800
C312        C  0.54007660  0.61359914  0.31760165     0.00000
C313        C  0.54533411  0.63018091  0.34080982    -0.02600
C314        C  0.60426717  0.68443360  0.30715855     0.36700
C315        C  0.51852667  0.58940269  0.32195738     0.40300
C316        C  0.59313994  0.65183869  0.25881521     0.39400
C317        C  0.52898989  0.62334013  0.36833297     0.36300
C318        C  0.54493154  0.67809008  0.31942104     0.37000
C319        C  0.60622456  0.70628504  0.42980506     0.40300
N320        N  0.60588850  0.65833772  0.23615570    -0.37800
N321        N  0.62163217  0.70365671  0.30449062    -0.39400
N322        N  0.50133616  0.57010736  0.32550262    -0.37100
N323        N  0.51604054  0.61801900  0.39035851    -0.39500
N324        N  0.60370955  0.65660233  0.40239276    -0.39300
N325        N  0.61956224  0.71223273  0.45105051    -0.36900
N326        N  0.55053651  0.72981176  0.34170583    -0.38000
N327        N  0.53303763  0.67269034  0.29655944    -0.39600
C328        C  0.58187994  0.70812715  0.01353516    -0.04600
C329        C  0.56050419  0.68489813  0.01452875     0.09600
C330        C  0.54393038  0.67949618  0.49001506    -0.01900
C331        C  0.54839881  0.69664206  0.46421567    -0.00200
C332        C  0.57004621  0.71993495  0.46253989    -0.03800
C333        C  0.58717973  0.72548675  0.48704880     0.03200
C334        C  0.55690541  0.66605706  0.04002125     0.10000
C335        C  0.52188407  0.65559352  0.49117856     0.35900
C336        C  0.61105126  0.74737519  0.48296270     0.39400
C337        C  0.54778914  0.66401214  0.07174483    -0.04200
C338        C  0.54540260  0.64702487  0.09609399     0.03000
C339        C  0.55172470  0.63152430  0.08881903    -0.03800
C340        C  0.56131182  0.63395215  0.05722889     0.00000
C341        C  0.56381973  0.65105901  0.03297269    -0.02600
C342        C  0.54080242  0.67943241  0.07924350     0.36700
C343        C  0.56806022  0.61844363  0.04928016     0.40300
C344        C  0.53737705  0.64625733  0.12910927     0.39400
C345        C  0.57338524  0.65310405  0.00055934     0.36300
C346        C  0.59975192  0.71389981  0.03807542     0.37000
C347        C  0.53144022  0.68941217  0.43808390     0.40300
N348        N  0.53117016  0.64578369  0.15552072    -0.37800
N349        N  0.53519032  0.69172988  0.08511796    -0.39400
N350        N  0.57356380  0.60615531  0.04290923    -0.37100
N351        N  0.58186585  0.65488564  0.47460240    -0.39500
N352        N  0.50432167  0.63649928  0.49215821    -0.39300
N353        N  0.51751604  0.68252535  0.41752359    -0.36900
N354        N  0.63052395  0.76421260  0.47940909    -0.38000
N355        N  0.61396954  0.71838671  0.05765445    -0.39600
C356        C  0.60222825  0.54253544  0.35144299    -0.04600
C357        C  0.62613570  0.55121736  0.34470587     0.09600
C358        C  0.63583068  0.56011333  0.31243740    -0.01900
C359        C  0.62143454  0.55951324  0.28678973    -0.00200
C360        C  0.59732042  0.55020622  0.29330118    -0.03800
C361        C  0.58797906  0.54240171  0.32586367     0.03200
C362        C  0.64108984  0.55018227  0.37101130     0.10000
C363        C  0.66053776  0.56938181  0.30555208     0.35900
C364        C  0.56403634  0.53519922  0.33321227     0.39400
C365        C  0.64180561  0.53015995  0.37488717    -0.04200
C366        C  0.65918037  0.53084015  0.39475253     0.03000
C367        C  0.67532493  0.55119468  0.41226114    -0.03800
C368        C  0.67390178  0.57088631  0.40933285     0.00000
C369        C  0.65664551  0.57023702  0.38903306    -0.02600
C370        C  0.62519305  0.50917775  0.35727092     0.36700
C371        C  0.69189692  0.59292854  0.42377995     0.40300
C372        C  0.66143268  0.51116594  0.39523201     0.39400
C373        C  0.65558951  0.59066727  0.38535303     0.36300
C374        C  0.59227162  0.53337267  0.38455445     0.37000
C375        C  0.63128949  0.56799740  0.25354450     0.40300
N376        N  0.66332692  0.49555293  0.39529644    -0.37800
N377        N  0.61185132  0.49242226  0.34332172    -0.39400
N378        N  0.70633956  0.61090485  0.43442528    -0.37100
N379        N  0.65469872  0.60694119  0.38240743    -0.39500
N380        N  0.68025827  0.57676159  0.30017563    -0.39300
N381        N  0.63916450  0.57483431  0.22702449    -0.36900
N382        N  0.54514469  0.53006394  0.33915204    -0.38000
N383        N  0.58439680  0.52596485  0.41099268    -0.39600
C384        C  0.63819257  0.55240328  0.08582108    -0.04600
C385        C  0.63902405  0.55719224  0.05143332     0.09600
C386        C  0.62266659  0.56121720  0.03709284    -0.01900
C387        C  0.60535830  0.56007734  0.05694312    -0.00200
C388        C  0.60447700  0.55524254  0.09132848    -0.03800
C389        C  0.62095878  0.55136412  0.10568794     0.03200
C390        C  0.65609361  0.55647851  0.03000424     0.10000
C391        C  0.62322017  0.56578920  0.00170195     0.35900
C392        C  0.61959357  0.54537373  0.14079945     0.39400
C393        C  0.64798441  0.53582968  0.01354394    -0.04200
C394        C  0.66343686  0.53512038  0.49249925     0.03000
C395        C  0.68727121  0.55545769  0.48673842    -0.03800
C396        C  0.69590432  0.57589295  0.00456568     0.00000
C397        C  0.68023723  0.57630407  0.02604283    -0.02600
C398        C  0.62340671  0.51504065  0.01842155     0.36700
C399        C  0.72034974  0.59673070  0.00001262     0.40300
C400        C  0.65516137  0.51312001  0.47782950     0.39400
C401        C  0.68874391  0.59734652  0.04357113     0.36300
C402        C  0.65459172  0.54773596  0.10057073     0.37000
C403        C  0.58741130  0.56224102  0.04169735     0.40300
N404        N  0.64819358  0.49505389  0.46733963    -0.37800
N405        N  0.60370870  0.49822330  0.52289122    -0.39400
N406        N  0.73974241  0.61375683  0.99683173    -0.37100
N407        N  0.69544009  0.61407304  0.05767565    -0.39500
N408        N  0.62298505  0.56816555  0.47343396    -0.39300
N409        N  0.57289127  0.56357530  0.02933670    -0.36900
N410        N  0.61829371  0.54032215  0.16875253    -0.38000
N411        N  0.66769234  0.54400038  0.11225254    -0.39600
C412        C  0.47091607  0.40031235  0.29820964    -0.04600
C413        C  0.47444550  0.40326755  0.33221619     0.09600
C414        C  0.48130429  0.42492532  0.34460204    -0.01900
C415        C  0.48525158  0.44380641  0.32300390    -0.00200
C416        C  0.48201430  0.44106160  0.28894574    -0.03800
C417        C  0.47442728  0.41910870  0.27662527     0.03200
C418        C  0.47205083  0.38418631  0.35539061     0.10000
C419        C  0.48499928  0.42796223  0.37961883     0.35900
C420        C  0.47050797  0.41600653  0.24171800     0.39400
C421        C  0.49222100  0.38419954  0.36225445    -0.04200
C422        C  0.49125656  0.36898001  0.38821253     0.03000
C423        C  0.47042320  0.35452385  0.40851351    -0.03800
C424        C  0.44975355  0.35336583  0.39998526     0.00000
C425        C  0.45050071  0.36796624  0.37329739    -0.02600
C426        C  0.51430240  0.40069046  0.34336978     0.36700
C427        C  0.42749258  0.33670647  0.41819547     0.40300
C428        C  0.51214366  0.36915431  0.39428417     0.39400
C429        C  0.42925011  0.36667810  0.36450601     0.36300
C430        C  0.46436438  0.37821875  0.28545040     0.37000
C431        C  0.49331991  0.46626115  0.33596418     0.40300
N432        N  0.52949543  0.37027042  0.39790902    -0.37800
N433        N  0.53190959  0.41394128  0.32836674    -0.39400
N434        N  0.40941851  0.32322151  0.43204800    -0.37100
N435        N  0.41228310  0.36557395  0.35727237    -0.39500
N436        N  0.48795008  0.43026079  0.40753689    -0.39300
N437        N  0.49984090  0.48398190  0.34712031    -0.36900
N438        N  0.46725756  0.41354729  0.21387478    -0.38000
N439        N  0.45929435  0.36062914  0.27527623    -0.39600
C440        C  0.48950839  0.40595897  0.99740607    -0.04600
C441        C  0.47076965  0.40045020  0.01870063     0.09600
C442        C  0.44916044  0.37737414  0.01990709    -0.01900
C443        C  0.44682108  0.35950273  0.00153677    -0.00200
C444        C  0.46647161  0.36473483  0.48177228    -0.03800
C445        C  0.48758544  0.38839701  0.47951894     0.03200
C446        C  0.47498589  0.41787027  0.04308199     0.10000
C447        C  0.42970775  0.37175192  0.04141747     0.35900
C448        C  0.50879797  0.39400968  0.46273401     0.39400
C449        C  0.47031584  0.43504023  0.03524814    -0.04200
C450        C  0.47452785  0.45136455  0.05849496     0.03000
C451        C  0.48370209  0.45079442  0.08967564    -0.03800
C452        C  0.48866383  0.43373249  0.09722990     0.00000
C453        C  0.48414797  0.41729335  0.07417721    -0.02600
C454        C  0.46168866  0.43618026  0.00293548     0.36700
C455        C  0.49835988  0.43290048  0.12884753     0.40300
C456        C  0.47061474  0.46955600  0.04964852     0.39400
C457        C  0.48916334  0.39980661  0.08232735     0.36300
C458        C  0.51146328  0.42995438  0.99530281     0.37000
C459        C  0.42486461  0.33553707  0.00486945     0.40300
N460        N  0.46763366  0.48417339  0.04252598    -0.37800
N461        N  0.45492348  0.43707912  0.97702756    -0.39400
N462        N  0.50628366  0.43234131  0.15393479    -0.37100
N463        N  0.49315670  0.38585620  0.08879058    -0.39500
N464        N  0.41424715  0.36732609  0.05865097    -0.39300
N465        N  0.40736627  0.31642172  0.00792885    -0.36900
N466        N  0.52647375  0.39939128  0.45050023    -0.38000
N467        N  0.52833135  0.44972480  0.49291895    -0.39600
C468        C  0.79483244  0.54167247  0.52922482    -0.04600
C469        C  0.79086473  0.55729447  0.54319878     0.09600
C470        C  0.80271788  0.56786253  0.07209745    -0.01900
C471        C  0.81795232  0.56259019  0.08718716    -0.00200
C472        C  0.82101650  0.54596248  0.07403591    -0.03800
C473        C  0.80983784  0.53615473  0.54470950     0.03200
C474        C  0.77277554  0.56082665  0.52874732     0.10000
C475        C  0.79832459  0.58349342  0.08704235     0.35900
C476        C  0.81239605  0.51902351  0.53074729     0.39400
C477        C  0.74813302  0.54346578  0.53551462    -0.04200
C478        C  0.73088093  0.54430486  0.51720951     0.03000
C479        C  0.73827312  0.56249876  0.49183960    -0.03800
C480        C  0.76296125  0.58157935  0.48840850     0.00000
C481        C  0.78010145  0.58064804  0.50663385    -0.02600
C482        C  0.74051854  0.52422104  0.06072904     0.36700
C483        C  0.77094688  0.60144658  0.46421545     0.40300
C484        C  0.70583547  0.52590775  0.02379810     0.39400
C485        C  0.80539116  0.59939899  0.50127569     0.36300
C486        C  0.78264264  0.53054646  0.49945058     0.37000
C487        C  0.82929074  0.57324413  0.11757953     0.40300
N488        N  0.68600702  0.51080993  0.03031220    -0.37800
N489        N  0.73451812  0.50885607  0.08069924    -0.39400
N490        N  0.77731946  0.61727120  0.44490261    -0.37100
N491        N  0.82557943  0.61435686  0.49711654    -0.39500
N492        N  0.79469632  0.59587346  0.09896323    -0.39300
N493        N  0.83795251  0.58164969  0.14201580    -0.36900
N494        N  0.81383287  0.50534949  0.51822955    -0.38000
N495        N  0.77285706  0.52167067  0.47574121    -0.39600
C496        C  0.21781055  0.48803201  0.53532793    -0.04600
C497        C  0.24232194  0.50407007  0.54238702     0.09600
C498        C  0.24846880  0.51873718  0.06826112    -0.01900
C499        C  0.23077353  0.51717937  0.08759300    -0.00200
C500        C  0.20609089  0.49956217  0.08261474    -0.03800
C501        C  0.19997130  0.48567700  0.55570724     0.03200
C502        C  0.26113227  0.50448434  0.52342128     0.10000
C503        C  0.27354371  0.53541473  0.07557390     0.35900
C504        C  0.17497478  0.46741171  0.55022644     0.39400
C505        C  0.27496703  0.52256078  0.49833157    -0.04200
C506        C  0.29099765  0.52163232  0.47855250     0.03000
C507        C  0.29399625  0.50298095  0.48427331    -0.03800
C508        C  0.28111156  0.48554359  0.01132166     0.00000
C509        C  0.26482696  0.48634496  0.03087057    -0.02600
C510        C  0.27208696  0.54172011  0.49217591     0.36700
C511        C  0.28343382  0.46607621  0.01764290     0.40300
C512        C  0.30339227  0.53920410  0.45092576     0.39400
C513        C  0.25164411  0.46850965  0.05793285     0.36300
C514        C  0.21102013  0.47358728  0.50742758     0.37000
C515        C  0.23806646  0.53361507  0.11319010     0.40300
N516        N  0.31322324  0.55315798  0.42883607    -0.37800
N517        N  0.26988735  0.55708290  0.48746509    -0.39400
N518        N  0.28462469  0.45014785  0.02351061    -0.37100
N519        N  0.24106119  0.45428907  0.07951029    -0.39500
N520        N  0.29354149  0.54864247  0.08147407    -0.39300
N521        N  0.24379072  0.54668193  0.13359699    -0.36900
N522        N  0.15508804  0.45268658  0.54554263    -0.38000
N523        N  0.20572071  0.46219634  0.48502007    -0.39600
C524        C  0.95240550  0.55690911  0.21117799    -0.04600
C525        C  0.92779371  0.54682644  0.21367916     0.09600
C526        C  0.91547338  0.53648345  0.24425244    -0.01900
C527        C  0.92736170  0.53501489  0.27178106    -0.00200
C528        C  0.95184074  0.54437502  0.26912000    -0.03800
C529        C  0.96450509  0.55590999  0.23896813     0.03200
C530        C  0.91400518  0.54570942  0.18417472     0.10000
C531        C  0.89036987  0.52709254  0.24718861     0.35900
C532        C  0.98970166  0.56576934  0.23609486     0.39400
C533        C  0.89905793  0.52382326  0.16965194    -0.04200
C534        C  0.88033326  0.51984444  0.14948918     0.03000
C535        C  0.87739990  0.53832498  0.14204647    -0.03800
C536        C  0.89391737  0.56101335  0.15421154     0.00000
C537        C  0.91223301  0.56468934  0.17512767    -0.02600
C538        C  0.90209686  0.50487617  0.17733793     0.36700
C539        C  0.89054239  0.57983515  0.14861935     0.40300
C540        C  0.86291233  0.49599345  0.13936316     0.39400
C541        C  0.92831398  0.58751748  0.18913076     0.36300
C542        C  0.96503622  0.56772930  0.17982834     0.37000
C543        C  0.91435549  0.52406149  0.30292375     0.40300
N544        N  0.84923041  0.47655505  0.13243661    -0.37800
N545        N  0.90466352  0.48986965  0.18346441    -0.39400
N546        N  0.88817125  0.59512829  0.14509275    -0.37100
N547        N  0.94120669  0.60574526  0.20022916    -0.39500
N548        N  0.87037638  0.51967024  0.24935067    -0.39300
N549        N  0.90385202  0.51524196  0.32765125    -0.36900
N550        N  0.00980531  0.57363358  0.23379404    -0.38000
N551        N  0.97508453  0.57636113  0.15477194    -0.39600
C552        C  0.91883395  0.54946116  0.47127169    -0.04600
C553        C  0.91966088  0.54827879  0.50595486     0.09600
C554        C  0.93703100  0.54622725  0.52143985    -0.01900
C555        C  0.95291917  0.54457417  0.50242377    -0.00200
C556        C  0.95157636  0.54497853  0.46780791    -0.03800
C557        C  0.93472302  0.54779985  0.45225132     0.03200
C558        C  0.90080738  0.54678839  0.52635210     0.10000
C559        C  0.93812149  0.54525710  0.55705450     0.35900
C560        C  0.93336577  0.54840741  0.41667812     0.39400
C561        C  0.88015972  0.52418037  0.53693546    -0.04200
C562        C  0.86323861  0.52237412  0.55830993     0.03000
C563        C  0.86666929  0.54309606  0.56932867    -0.03800
C564        C  0.88665324  0.56581244  0.05698114     0.00000
C565        C  0.90354390  0.56759509  0.53563377    -0.02600
C566        C  0.87665672  0.50271946  0.52642006     0.36700
C567        C  0.88892967  0.58695771  0.06583504     0.40300
C568        C  0.84206489  0.49908833  0.56901786     0.39400
C569        C  0.92448633  0.59087528  0.52431772     0.36300
C570        C  0.90116708  0.55175357  0.45527871     0.37000
C571        C  0.97041693  0.54203586  0.51848831     0.40300
N572        N  0.82485165  0.48050723  0.57687842    -0.37800
N573        N  0.87393149  0.48564130  0.51798971    -0.39400
N574        N  0.89072601  0.60402114  0.07212374    -0.37100
N575        N  0.94197769  0.60974967  0.01647858    -0.39500
N576        N  0.93890412  0.54447397  0.58547689    -0.39300
N577        N  0.98440524  0.54002641  0.53126008    -0.36900
N578        N  0.93234189  0.54888338  0.38828434    -0.38000
N579        N  0.88704525  0.55360173  0.44261761    -0.39600
C580        C  0.92669780  0.37213341  0.21213295    -0.04600
C581        C  0.91540352  0.38360431  0.21573032     0.09600
C582        C  0.89361860  0.37516678  0.20016688    -0.01900
C583        C  0.88360345  0.35587403  0.17994576    -0.00200
C584        C  0.89494639  0.34438817  0.17614325    -0.03800
C585        C  0.91596478  0.35195524  0.19362753     0.03200
C586        C  0.92604946  0.40390174  0.23731733     0.10000
C587        C  0.88091476  0.38553588  0.20655423     0.35900
C588        C  0.92575873  0.33814401  0.19456291     0.39400
C589        C  0.93994128  0.42765015  0.22337087    -0.04200
C590        C  0.95213422  0.44677340  0.24391249     0.03000
C591        C  0.95056093  0.44212388  0.27834539    -0.03800
C592        C  0.93535759  0.41848555  0.29234050     0.00000
C593        C  0.92310565  0.39936595  0.27183206    -0.02600
C594        C  0.94197541  0.43230568  0.18790694     0.36700
C595        C  0.93242849  0.41390338  0.32782191     0.40300
C596        C  0.96631932  0.47122658  0.22970593     0.39400
C597        C  0.90766666  0.37500268  0.28614672     0.36300
C598        C  0.94912067  0.38079839  0.22824095     0.37000
C599        C  0.86042160  0.34641423  0.16589454     0.40300
N600        N  0.97749769  0.49075026  0.21841139    -0.37800
N601        N  0.94346320  0.43593582  0.15959318    -0.39400
N602        N  0.93000078  0.41036288  0.35612914    -0.37100
N603        N  0.89530859  0.35556126  0.29754721    -0.39500
N604        N  0.87071986  0.39367294  0.21208740    -0.39300
N605        N  0.84170809  0.33889048  0.15544425    -0.36900
N606        N  0.93350081  0.32704244  0.19600249    -0.38000
N607        N  0.96702091  0.38777320  0.24105560    -0.39600
C608        C  0.93250005  0.39404342  0.49440093    -0.04600
C609        C  0.92578560  0.39794793  0.52435952     0.09600
C610        C  0.93274840  0.42105929  0.53021960    -0.01900
C611        C  0.94669116  0.44027445  0.50645135    -0.00200
C612        C  0.95417044  0.43657556  0.47694429    -0.03800
C613        C  0.94684979  0.41331195  0.47088387     0.03200
C614        C  0.91293029  0.37802861  0.55074421     0.10000
C615        C  0.92585870  0.42507564  0.56100967     0.35900
C616        C  0.95357824  0.40899364  0.44019673     0.39400
C617        C  0.92611413  0.37285294  0.57170346    -0.04200
C618        C  0.91424390  0.35341556  0.59553510     0.03000
C619        C  0.88951221  0.33972318  0.10026060    -0.03800
C620        C  0.87617071  0.34481993  0.07916151     0.00000
C621        C  0.88778474  0.36387947  0.55413905    -0.02600
C622        C  0.95199334  0.38727981  0.56812501     0.36700
C623        C  0.85045962  0.33109376  0.08323000     0.40300
C624        C  0.92771569  0.34579044  0.61231752     0.39400
C625        C  0.87410707  0.36741343  0.03058829     0.36300
C626        C  0.92453512  0.37009189  0.48786084     0.35200
C627        C  0.95400037  0.46404285  0.51283369     0.40300
N628        N  0.93897610  0.33970929  0.62403696    -0.37800
N629        N  0.97262142  0.39885350  0.56524422    -0.39400
N630        N  0.82987720  0.32042439  0.08583378    -0.37100
N631        N  0.86317594  0.37054047  0.01179850    -0.39500
N632        N  0.92032333  0.42822584  0.58559673    -0.39300
N633        N  0.95985457  0.48301847  0.51785639    -0.36900
N634        N  0.95900402  0.40552031  0.41578441    -0.38000
N635        N  0.91804145  0.35093821  0.48268114    -0.39600
C636        C  0.07904966  0.49999230  0.21357559    -0.04600
C637        C  0.10340758  0.50906372  0.21629001     0.09600
C638        C  0.11622315  0.52212886  0.24349913    -0.01900
C639        C  0.10466625  0.52566181  0.26816433    -0.00200
C640        C  0.08021556  0.51647113  0.26558295    -0.03800
C641        C  0.06752365  0.50376374  0.23804943     0.03200
C642        C  0.11536046  0.50349303  0.19200006     0.10000
C643        C  0.14127604  0.53150079  0.24644231     0.35900
C644        C  0.04268984  0.49497401  0.23455288     0.39400
C645        C  0.13179843  0.52112456  0.16801477    -0.04200
C646        C  0.14626826  0.51732497  0.14926789     0.03000
C647        C  0.14405318  0.49556229  0.15393862    -0.03800
C648        C  0.12649165  0.47742277  0.17682389     0.00000
C649        C  0.11219170  0.48135244  0.19551159    -0.02600
C650        C  0.13465417  0.54371997  0.16392838     0.36700
C651        C  0.12395359  0.45504639  0.18275465     0.40300
C652        C  0.16503471  0.53692427  0.12799460     0.39400
C653        C  0.09499621  0.46300191  0.21975742     0.36300
C654        C  0.06584646  0.48660549  0.18567275     0.37000
C655        C  0.11771644  0.53768557  0.29701939     0.40300
N656        N  0.17998213  0.55313631  0.11161700    -0.37800
N657        N  0.13695304  0.56175743  0.16076993    -0.39400
N658        N  0.12199049  0.43725447  0.18779824    -0.37100
N659        N  0.08124346  0.44840160  0.23907742    -0.39500
N660        N  0.16127625  0.53902901  0.24862557    -0.39300
N661        N  0.12812974  0.54716268  0.32009706    -0.36900
N662        N  0.02289360  0.48804378  0.23176591    -0.38000
N663        N  0.05532837  0.47584384  0.16343934    -0.39600
C664        C  0.10677167  0.51926214  0.51769263    -0.04600
C665        C  0.11740714  0.50833245  0.50696117     0.09600
C666        C  0.11380713  0.50104797  0.47456144    -0.01900
C667        C  0.09954936  0.50456141  0.45307094    -0.00200
C668        C  0.08866840  0.51521020  0.46398620    -0.03800
C669        C  0.09262075  0.52287218  0.49618665     0.03200
C670        C  0.13182792  0.50396194  0.53035458     0.10000
C671        C  0.12465493  0.48977870  0.46350579     0.35900
C672        C  0.08180417  0.53416944  0.50733927     0.39400
C673        C  0.12019669  0.48367820  0.55278310    -0.04200
C674        C  0.13278632  0.47962832  0.07677608     0.03000
C675        C  0.15820072  0.49819941  0.57977775    -0.03800
C676        C  0.17005221  0.51785537  0.55595752     0.00000
C677        C  0.15690719  0.52048805  0.53107690    -0.02600
C678        C  0.09447586  0.46628536  0.55156579     0.36700
C679        C  0.19548434  0.53605279  0.55759279     0.40300
C680        C  0.12100099  0.45739898  0.09706487     0.39400
C681        C  0.16906671  0.54046959  0.50648036     0.36300
C682        C  0.11017007  0.52648149  0.55111031     0.37000
C683        C  0.09675830  0.49800750  0.41936721     0.40300
N684        N  0.11118871  0.43923761  0.11238491    -0.37800
N685        N  0.07330012  0.45148755  0.05072768    -0.39400
N686        N  0.21576812  0.55101417  0.55821617    -0.37100
N687        N  0.17871752  0.55627368  0.48663194    -0.39500
N688        N  0.13331812  0.48077014  0.45474160    -0.39300
N689        N  0.09463220  0.49297139  0.39238720    -0.36900
N690        N  0.07318233  0.54321612  0.51611927    -0.38000
N691        N  0.11283715  0.53208975  0.57784423    -0.39600
C692        C  0.11195902  0.66958101  0.14735865    -0.04600
C693        C  0.12035029  0.66169215  0.17300291     0.09600
C694        C  0.14505498  0.67276610  0.17615229    -0.01900
C695        C  0.16143955  0.69330665  0.15591089    -0.00200
C696        C  0.15314023  0.70270161  0.13211437    -0.03800
C697        C  0.12829891  0.69031430  0.12718602     0.03200
C698        C  0.10368056  0.64476397  0.20014621     0.10000
C699        C  0.15360330  0.66387625  0.20166443     0.35900
C700        C  0.11919294  0.70006146  0.10422582     0.39400
C701        C  0.09483504  0.62049404  0.20163071    -0.04200
C702        C  0.08106733  0.60528851  0.22922760     0.03000
C703        C  0.07618305  0.61439352  0.25540248    -0.03800
C704        C  0.08436131  0.63854560  0.25331052     0.00000
C705        C  0.09805672  0.65368437  0.22567109    -0.02600
C706        C  0.10031637  0.61137621  0.17502582     0.36700
C707        C  0.08006196  0.64827322  0.28039812     0.40300
C708        C  0.07181591  0.58022309  0.23061528     0.39400
C709        C  0.10715384  0.67873149  0.22392259     0.36300
C710        C  0.08640521  0.65714068  0.14330867     0.37000
C711        C  0.18689339  0.70566258  0.16111775     0.40300
N712        N  0.06437169  0.56021717  0.23169967    -0.37800
N713        N  0.10473878  0.60414688  0.15378160    -0.39400
N714        N  0.07677277  0.65614973  0.30198969    -0.37100
N715        N  0.11445499  0.69870811  0.22233727    -0.39500
N716        N  0.16043471  0.65677241  0.22195956    -0.39300
N717        N  0.20718359  0.71556506  0.16527080    -0.36900
N718        N  0.11123185  0.70713074  0.58703538    -0.38000
N719        N  0.06600107  0.64710852  0.14018074    -0.39600
C720        C  0.12874995  0.65914863  0.46515073    -0.04600
C721        C  0.12071873  0.66169696  0.49496966     0.09600
C722        C  0.09666276  0.64506992  0.50561484    -0.01900
C723        C  0.08072027  0.62575778  0.48665985    -0.00200
C724        C  0.08876305  0.62303706  0.45687644    -0.03800
C725        C  0.11282232  0.63997439  0.44600534     0.03200
C726        C  0.13759314  0.68204385  0.51521092     0.10000
C727        C  0.08838453  0.64776844  0.53625895     0.35900
C728        C  0.12110447  0.63830987  0.41456406     0.39400
C729        C  0.13756353  0.70246729  0.51362468    -0.04200
C730        C  0.15191691  0.72078588  0.53487404     0.03000
C731        C  0.16643742  0.71875148  0.55794021    -0.03800
C732        C  0.16779170  0.69907093  0.55740733     0.00000
C733        C  0.15318849  0.68064746  0.53647104    -0.02600
C734        C  0.12191879  0.70407792  0.49092965     0.36700
C735        C  0.18393839  0.69742441  0.07847845     0.40300
C736        C  0.14986310  0.74049481  0.53442919     0.39400
C737        C  0.15362349  0.65983133  0.53744835     0.36300
C738        C  0.15344350  0.67640861  0.45416498     0.37000
C739        C  0.05623084  0.60829101  0.49837815     0.40300
N740        N  0.14695340  0.75544107  0.53291755    -0.37800
N741        N  0.10934247  0.70522566  0.47289656    -0.39400
N742        N  0.19714331  0.69577563  0.09429990    -0.37100
N743        N  0.15390061  0.64319284  0.53817248    -0.39500
N744        N  0.08170132  0.64990698  0.56063918    -0.39300
N745        N  0.03669661  0.59434118  0.50767808    -0.36900
N746        N  0.12773132  0.63706034  0.38945370    -0.38000
N747        N  0.17317040  0.69016687  0.44553882    -0.39600
C748        C  0.80816784  0.22794979  0.99745730    -0.04600
C749        C  0.80780510  0.24657100  0.00889392     0.09600
C750        C  0.79447210  0.25363325  0.99210748    -0.01900
C751        C  0.78114684  0.24164584  0.46338674    -0.00200
C752        C  0.78132371  0.22269893  0.45274707    -0.03800
C753        C  0.79602390  0.21711181  0.96872125     0.03200
C754        C  0.82230551  0.25954218  0.03775253     0.10000
C755        C  0.79498030  0.27387298  0.50087769     0.35900
C756        C  0.80000349  0.20110914  0.95404842     0.39400
C757        C  0.84712637  0.27511194  0.53457336    -0.04200
C758        C  0.86118018  0.28676857  0.06243439     0.03000
C759        C  0.84962786  0.28483230  0.09200143    -0.03800
C760        C  0.82428180  0.27008094  0.09422162     0.00000
C761        C  0.81076809  0.25688915  0.06763363    -0.02600
C762        C  0.85913661  0.27834586  0.50368223     0.36700
C763        C  0.81194977  0.26888921  0.12363711     0.40300
C764        C  0.88646677  0.29996139  0.56015228     0.39400
C765        C  0.78493915  0.24026029  0.07114526     0.36300
C766        C  0.82119223  0.22005082  0.01517545     0.37000
C767        C  0.76973682  0.25063832  0.44395770     0.40300
N768        N  0.90696686  0.30984324  0.55791031    -0.37800
N769        N  0.86868921  0.28088082  0.47904096    -0.39400
N770        N  0.80213327  0.26809130  0.14698102    -0.37100
N771        N  0.76435750  0.22691669  0.07392746    -0.39500
N772        N  0.79559339  0.28997378  0.50891728    -0.39300
N773        N  0.76140955  0.25866931  0.42846353    -0.36900
N774        N  0.80360567  0.18869471  0.94216332    -0.38000
N775        N  0.83152831  0.21371169  0.02936443    -0.39600
C776        C  0.50339453  0.26890356  0.34281602    -0.04600
C777        C  0.48560580  0.26446264  0.36528409     0.09600
C778        C  0.47186474  0.24211172  0.38353389    -0.01900
C779        C  0.47833272  0.22612073  0.38320751    -0.00200
C780        C  0.49905072  0.23266348  0.36546176    -0.03800
C781        C  0.51022421  0.25305881  0.34309488     0.03200
C782        C  0.48479983  0.28448339  0.37585721     0.10000
C783        C  0.45196159  0.23605719  0.90510344     0.35900
C784        C  0.53024249  0.25888111  0.32280173     0.39400
C785        C  0.46435549  0.28439347  0.37070609    -0.04200
C786        C  0.46022401  0.29817751  0.38971542     0.03000
C787        C  0.47666298  0.31229451  0.41381983    -0.03800
C788        C  0.49795820  0.31364130  0.41711159     0.00000
C789        C  0.50230685  0.30040758  0.39757922    -0.02600
C790        C  0.44682868  0.26881459  0.34739586     0.36700
C791        C  0.51469652  0.32729343  0.44250798     0.40300
C792        C  0.43788520  0.29573551  0.38676637     0.39400
C793        C  0.52417830  0.30193027  0.40161994     0.36300
C794        C  0.51595270  0.29073607  0.32156409     0.37000
C795        C  0.46537296  0.20425347  0.90492325     0.40300
N796        N  0.41979063  0.29326776  0.38416904    -0.37800
N797        N  0.43283373  0.25628592  0.32885554    -0.39400
N798        N  0.52795524  0.33812312  0.46282735    -0.37100
N799        N  0.54171033  0.30330342  0.40460095    -0.39500
N800        N  0.43673915  0.23174518  0.92274591    -0.39300
N801        N  0.45540568  0.18734055  0.92291949    -0.36900
N802        N  0.54618314  0.26354972  0.30643334    -0.38000
N803        N  0.52595467  0.30817192  0.30456619    -0.39600
C804        C  0.64799686  0.12276177  0.01028458    -0.04600
C805        C  0.66709064  0.14671468  0.01469655     0.09600
C806        C  0.66730165  0.15755138  0.04291582    -0.01900
C807        C  0.64852347  0.14453161  0.06662684    -0.00200
C808        C  0.62970269  0.12036029  0.06263263    -0.03800
C809        C  0.62949880  0.10952964  0.03438193     0.03200
C810        C  0.68752512  0.16028863  0.99025356     0.10000
C811        C  0.68716099  0.18199920  0.04781881     0.35900
C812        C  0.60988824  0.08495339  0.02964869     0.39400
C813        C  0.68994659  0.17826997  0.96811323    -0.04200
C814        C  0.70933974  0.19104911  0.94521175     0.03000
C815        C  0.72636822  0.18579959  0.94411541    -0.03800
C816        C  0.72384530  0.16781284  0.96646498     0.00000
C817        C  0.70457747  0.15517492  0.98943814    -0.02600
C818        C  0.67216415  0.18327446  0.96856270     0.36700
C819        C  0.74004534  0.16096910  0.96460244     0.40300
C820        C  0.71147313  0.20889440  0.42246589     0.39400
C821        C  0.70193359  0.13641782  0.01184429     0.36300
C822        C  0.64742923  0.11178393  0.98086269     0.37000
C823        C  0.64905588  0.15589175  0.09559770     0.40300
N824        N  0.71241664  0.22350972  0.40524918    -0.37800
N825        N  0.65797061  0.18724296  0.96898029    -0.39400
N826        N  0.75204893  0.15432134  0.96356249    -0.37100
N827        N  0.69966891  0.12130438  0.02950882    -0.39500
N828        N  0.70303105  0.20149732  0.05161817    -0.39300
N829        N  0.64950132  0.16504354  0.11861335    -0.36900
N830        N  0.59422331  0.06536630  0.02587592    -0.38000
N831        N  0.64705980  0.10306592  0.95740028    -0.39600
C832        C  0.69117529  0.17676648  0.32913003    -0.04600
C833        C  0.67625468  0.15163773  0.33332793     0.09600
C834        C  0.68188309  0.13959801  0.35656880    -0.01900
C835        C  0.70319394  0.15255236  0.37418840    -0.00200
C836        C  0.71839553  0.17774681  0.36972989    -0.03800
C837        C  0.71229244  0.18979508  0.34706617     0.03200
C838        C  0.65670919  0.13775035  0.30982695     0.10000
C839        C  0.66614513  0.11372594  0.36120556     0.35900
C840        C  0.72826391  0.21558164  0.34113772     0.39400
C841        C  0.66157038  0.13057365  0.28139534    -0.04200
C842        C  0.64359434  0.11799015  0.25840371     0.03000
C843        C  0.62050119  0.11226413  0.26396785    -0.03800
C844        C  0.61552746  0.11900584  0.29284621     0.00000
C845        C  0.63368166  0.13190624  0.31562331    -0.02600
C846        C  0.68524336  0.13634117  0.27577893     0.36700
C847        C  0.59150653  0.11189598  0.29971623     0.40300
C848        C  0.64924326  0.11170243  0.22857218     0.39400
C849        C  0.62873982  0.13912902  0.34506498     0.36300
C850        C  0.68516674  0.18911207  0.30544008     0.37000
C851        C  0.71047264  0.13960546  0.39390326     0.40300
N852        N  0.65383508  0.10673457  0.20481871    -0.37800
N853        N  0.70412111  0.14092031  0.27150268    -0.39400
N854        N  0.57228441  0.10604713  0.30523465    -0.37100
N855        N  0.62483630  0.14494430  0.36854925    -0.39500
N856        N  0.65351469  0.09310012  0.36488034    -0.39300
N857        N  0.71581123  0.12846605  0.40860856    -0.36900
N858        N  0.74103924  0.23614383  0.33646197    -0.38000
N859        N  0.68032365  0.19893319  0.28657339    -0.39600
C860        C  0.50279269  0.14007577  0.93778795    -0.04600
C861        C  0.52472164  0.14600733  0.95028647     0.09600
C862        C  0.54606421  0.16801991  0.93997922    -0.01900
C863        C  0.54514644  0.18552478  0.92153888    -0.00200
C864        C  0.52280795  0.18087180  0.91291372    -0.03800
C865        C  0.50238748  0.15810311  0.41992800     0.03200
C866        C  0.52462318  0.13265261  0.98081794     0.10000
C867        C  0.56880344  0.17340276  0.95104046     0.35900
C868        C  0.47913056  0.15282917  0.41275079     0.39400
C869        C  0.53011228  0.11593318  0.97998068    -0.04200
C870        C  0.53129406  0.10481833  0.00969616     0.03000
C871        C  0.52603649  0.10973510  0.04005832    -0.03800
C872        C  0.51982401  0.12587836  0.04067307     0.00000
C873        C  0.51956344  0.13764471  0.01126302    -0.02600
C874        C  0.53421069  0.11004574  0.94861129     0.36700
C875        C  0.51353086  0.13032061  0.07157943     0.40300
C876        C  0.53808146  0.08850110  0.00910441     0.39400
C877        C  0.51424452  0.15512534  0.01228988     0.36300
C878        C  0.48109010  0.11658170  0.94647208     0.37000
C879        C  0.56710970  0.20910003  0.91459768     0.40300
N880        N  0.54368014  0.07561853  0.00863554    -0.37800
N881        N  0.53727794  0.10524205  0.92350533    -0.39400
N882        N  0.50824241  0.13382747  0.09605045    -0.37100
N883        N  0.51004910  0.16909287  0.01292063    -0.39500
N884        N  0.58692908  0.17764720  0.95983290    -0.39300
N885        N  0.58483255  0.22787150  0.90978417    -0.36900
N886        N  0.46007018  0.14771588  0.40821823    -0.38000
N887        N  0.46382701  0.09782178  0.95341899    -0.39600
C888        C  0.51131992  0.12885825  0.29909217    -0.04600
C889        C  0.51237783  0.14823469  0.28274091     0.09600
C890        C  0.51486416  0.15159561  0.24813241    -0.01900
C891        C  0.51630826  0.13574077  0.23000293    -0.00200
C892        C  0.51584830  0.11672701  0.24634764    -0.03800
C893        C  0.51329220  0.11329978  0.28097087     0.03200
C894        C  0.51227403  0.16585942  0.30222153     0.10000
C895        C  0.51649752  0.17174302  0.23129305     0.35900
C896        C  0.51340938  0.09418123  0.29799696     0.39400
C897        C  0.53407794  0.18646252  0.31158081    -0.04200
C898        C  0.53400541  0.20182464  0.33252571     0.03000
C899        C  0.51230706  0.19595183  0.34603325    -0.03800
C900        C  0.49061935  0.17726296  0.33325305     0.00000
C901        C  0.49056114  0.16206932  0.31155970    -0.02600
C902        C  0.55656192  0.19133493  0.30068159     0.36700
C903        C  0.46854268  0.17400041  0.34173503     0.40300
C904        C  0.55622164  0.22395183  0.34009656     0.39400
C905        C  0.46821502  0.14224453  0.29937876     0.36300
C906        C  0.50864234  0.12524033  0.33465983     0.37000
C907        C  0.51839200  0.13905796  0.19445430     0.40300
N908        N  0.57393686  0.24194418  0.34536032    -0.37800
N909        N  0.57447803  0.19511885  0.29207614    -0.39400
N910        N  0.45064849  0.17120731  0.34766037    -0.37100
N911        N  0.45041045  0.12643598  0.28950497    -0.39500
N912        N  0.51795428  0.18792932  0.21794115    -0.39300
N913        N  0.52002898  0.14167671  0.16606019    -0.36900
N914        N  0.51363155  0.07899704  0.31156758    -0.38000
N915        N  0.50644976  0.12235064  0.36303332    -0.39600
C916        C  0.25835349  0.83782390  0.45616994    -0.04600
C917        C  0.25788398  0.83627371  0.49071444     0.09600
C918        C  0.27392616  0.85666717  0.00808686    -0.01900
C919        C  0.28869378  0.87912190  0.99061799    -0.00200
C920        C  0.28946806  0.88101013  0.45554855    -0.03800
C921        C  0.27466007  0.85989190  0.43859868     0.03200
C922        C  0.23875117  0.81389468  0.50960082     0.10000
C923        C  0.27455379  0.85466610  0.04377489     0.35900
C924        C  0.27567990  0.86069194  0.40294443     0.39400
C925        C  0.24048118  0.79450839  0.01587192    -0.04200
C926        C  0.22419995  0.77497927  0.03791556     0.03000
C927        C  0.20637094  0.77499914  0.55401486    -0.03800
C928        C  0.20441298  0.79423718  0.54749282     0.00000
C929        C  0.22008817  0.81321292  0.52465690    -0.02600
C930        C  0.25998037  0.79552331  0.00065412     0.36700
C931        C  0.18746331  0.79554740  0.56611044     0.40300
C932        C  0.22784512  0.75656042  0.04613411     0.39400
C933        C  0.21794962  0.83286359  0.51802092     0.36300
C934        C  0.24143515  0.81682543  0.43877437     0.37000
C935        C  0.30111161  0.90009920  0.00925685     0.40300
N936        N  0.23165400  0.74245578  0.05231609    -0.37800
N937        N  0.27557207  0.79640039  0.98852204    -0.39400
N938        N  0.17404710  0.79669800  0.58098603    -0.37100
N939        N  0.21641546  0.84862995  0.51278220    -0.39500
N940        N  0.27508636  0.85301872  0.07218399    -0.39300
N941        N  0.30995196  0.91582122  0.02611088    -0.36900
N942        N  0.27623072  0.86122195  0.37451515    -0.38000
N943        N  0.22784729  0.80006840  0.42498895    -0.39600
C944        C  0.42500558  0.97834772  0.01266586    -0.04600
C945        C  0.40464835  0.95579445  0.02433442     0.09600
C946        C  0.40403904  0.94653011  0.05656795    -0.01900
C947        C  0.42356813  0.95997041  0.07727740    -0.00200
C948        C  0.44362031  0.98289041  0.06590461    -0.03800
C949        C  0.44431648  0.99196288  0.03351405     0.03200
C950        C  0.38300647  0.94321990  0.00362274     0.10000
C951        C  0.38296198  0.92354291  0.06870357     0.35900
C952        C  0.46498367  0.01530336  0.02157391     0.39400
C953        C  0.37693160  0.92331555  0.98660706    -0.04200
C954        C  0.35771633  0.91323245  0.96469075     0.03000
C955        C  0.34521864  0.92357871  0.95897911    -0.03800
C956        C  0.35103104  0.94310643  0.97661988     0.00000
C957        C  0.36928033  0.95235646  0.99963573    -0.02600
C958        C  0.39080308  0.91365980  0.99109334     0.36700
C959        C  0.33777610  0.95340364  0.97128857     0.40300
C960        C  0.35095110  0.89243855  0.94791402     0.39400
C961        C  0.37406758  0.97141447  0.01917982     0.36300
C962        C  0.42578788  0.98769814  0.97929240     0.37000
C963        C  0.42250007  0.95062817  0.11073364     0.40300
N964        N  0.34568426  0.87563961  0.93505329    -0.37800
N965        N  0.40188465  0.90596164  0.99475804    -0.39400
N966        N  0.32692027  0.96132915  0.96730363    -0.37100
N967        N  0.37781364  0.98650667  0.03493884    -0.39500
N968        N  0.36611801  0.90519333  0.07827904    -0.39300
N969        N  0.42160346  0.94314909  0.13742461    -0.36900
N970        N  0.48144511  0.03393672  0.01206036    -0.38000
N971        N  0.42623974  0.99506843  0.95269777    -0.39600
C972        C  0.39763440  0.97890839  0.37044219    -0.04600
C973        C  0.40214261  0.96526095  0.35220632     0.09600
C974        C  0.38564998  0.94023382  0.35343728    -0.01900
C975        C  0.36372159  0.92904145  0.37060107    -0.00200
C976        C  0.35853339  0.94281614  0.38738014    -0.03800
C977        C  0.37557513  0.96776846  0.38744530     0.03200
C978        C  0.42030310  0.97717647  0.32497310     0.10000
C979        C  0.39062839  0.92627351  0.33495036     0.35900
C980        C  0.36982869  0.98228126  0.40257586     0.39400
C981        C  0.44315235  0.98209247  0.32865123    -0.04200
C982        C  0.45880900  0.99066190  0.30105149     0.03000
C983        C  0.45132774  0.99383395  0.26982384    -0.03800
C984        C  0.42855890  0.98928317  0.26647114     0.00000
C985        C  0.41328847  0.98138025  0.29408777    -0.02600
C986        C  0.45045337  0.97840783  0.36073950     0.36700
C987        C  0.42032360  0.99175831  0.23439021     0.40300
C988        C  0.48281225  0.99697555  0.30495428     0.39400
C989        C  0.39004630  0.97715049  0.29072632     0.36300
C990        C  0.41525932  0.00455723  0.37017120     0.37000
C991        C  0.34565981  0.90367599  0.36827695     0.40300
N992        N  0.50203404  0.00217904  0.30800639    -0.37800
N993        N  0.45632054  0.97554067  0.38637280    -0.39400
N994        N  0.41368345  0.99363183  0.20884048    -0.37100
N995        N  0.37155980  0.97386113  0.28831042    -0.39500
N996        N  0.39470660  0.91527401  0.32011574    -0.39300
N997        N  0.33132022  0.88349676  0.36585958    -0.36900
N998        N  0.36553384  0.99435388  0.41387300    -0.38000
N999        N  0.42941212  0.02499790  0.37013448    -0.39600
C1000       C  0.58375394  0.80909781  0.45809232    -0.04600
C1001       C  0.56487226  0.80569817  0.43885980     0.09600
C1002       C  0.54876441  0.78344156  0.42587588    -0.01900
C1003       C  0.55311217  0.76567894  0.42885166    -0.00200
C1004       C  0.57404482  0.77030544  0.44410128    -0.03800
C1005       C  0.58847368  0.79165705  0.46047380     0.03200
C1006       C  0.56337437  0.82637909  0.43053852     0.10000
C1007       C  0.52850764  0.77944587  0.40771041     0.35900
C1008       C  0.60957990  0.79696174  0.47745320     0.39400
C1009       C  0.57698544  0.84290714  0.40364740    -0.04200
C1010       C  0.58047993  0.86530702  0.40030169     0.03000
C1011       C  0.57018885  0.87119048  0.42362624    -0.03800
C1012       C  0.55452189  0.85370887  0.94855215     0.00000
C1013       C  0.55107027  0.83122282  0.45182682    -0.02600
C1014       C  0.58875478  0.83745501  0.38076300     0.36700
C1015       C  0.54394428  0.85958683  0.97288250     0.40300
C1016       C  0.59635782  0.88306268  0.37461519     0.39400
C1017       C  0.53666949  0.81440362  0.97954068     0.36300
C1018       C  0.59892295  0.83131694  0.97416420     0.37000
C1019       C  0.53699469  0.74365819  0.41331388     0.40300
N1020       N  0.60909101  0.89716841  0.35406409    -0.37800
N1021       N  0.59812019  0.83301408  0.36257693    -0.39400
N1022       N  0.53572031  0.86413356  0.99281097    -0.37100
N1023       N  0.52530882  0.80090049  0.00144234    -0.39500
N1024       N  0.51239216  0.77633701  0.39317298    -0.39300
N1025       N  0.52329719  0.72645381  0.40050434    -0.36900
N1026       N  0.62668637  0.80225365  0.49131511    -0.38000
N1027       N  0.61121454  0.84913382  0.98649235    -0.39600
C1028       C  0.55109479  0.99538852  0.99553385    -0.04600
C1029       C  0.56277272  0.98406496  0.99934221     0.09600
C1030       C  0.56919088  0.98012437  0.03099781    -0.01900
C1031       C  0.56451774  0.98801534  0.05858493    -0.00200
C1032       C  0.55282417  0.99929148  0.05485306    -0.03800
C1033       C  0.54561663  0.00252429  0.02345749     0.03200
C1034       C  0.56621761  0.97361636  0.97121382     0.10000
C1035       C  0.58007134  0.96732925  0.03528770     0.35900
C1036       C  0.53238054  0.01291654  0.01999746     0.39400
C1037       C  0.58948187  0.98388324  0.95878967    -0.04200
C1038       C  0.59484639  0.96945909  0.94441709     0.03000
C1039       C  0.57683481  0.94475472  0.94248916    -0.03800
C1040       C  0.55291038  0.93545298  0.95106690     0.00000
C1041       C  0.54757840  0.95015278  0.96443800    -0.02600
C1042       C  0.60825746  0.00865369  0.96392865     0.36700
C1043       C  0.53422956  0.91008936  0.95175206     0.40300
C1044       C  0.61936933  0.97958350  0.93486642     0.39400
C1045       C  0.52327332  0.94030661  0.97507577     0.36300
C1046       C  0.54479638  0.99961799  0.96297723     0.37000
C1047       C  0.57106850  0.98386131  0.09105811     0.40300
N1048       N  0.63909711  0.98798024  0.92769825    -0.37800
N1049       N  0.62317910  0.02840906  0.96815852    -0.39400
N1050       N  0.51861646  0.89000271  0.95376920    -0.37100
N1051       N  0.50391666  0.93250489  0.98353373    -0.39500
N1052       N  0.58865711  0.95705195  0.03861116    -0.39300
N1053       N  0.57619511  0.98055056  0.11701042    -0.36900
N1054       N  0.52152012  0.02089572  0.01727015    -0.38000
N1055       N  0.53990463  0.00305734  0.93692177    -0.39600
C1056       C  0.54909483  0.94485719  0.27486618    -0.04600
C1057       C  0.55292105  0.94937044  0.30849916     0.09600
C1058       C  0.55379980  0.96881657  0.31960809    -0.01900
C1059       C  0.55202500  0.98425983  0.29710947    -0.00200
C1060       C  0.54832634  0.97985398  0.26346866    -0.03800
C1061       C  0.54644875  0.95982938  0.25251137     0.03200
C1062       C  0.55850619  0.93540821  0.33189216     0.10000
C1063       C  0.55669764  0.97298661  0.35433089     0.35900
C1064       C  0.54265190  0.95513503  0.21799370     0.39400
C1065       C  0.58256506  0.94497262  0.33887013    -0.04200
C1066       C  0.58807189  0.93462790  0.36515659     0.03000
C1067       C  0.56964347  0.91468426  0.38479018    -0.03800
C1068       C  0.54592776  0.90283959  0.37426047     0.00000
C1069       C  0.54017793  0.91362911  0.34868351    -0.02600
C1070       C  0.60161917  0.96619513  0.31997856     0.36700
C1071       C  0.52775286  0.87939194  0.38915072     0.40300
C1072       C  0.61295157  0.94495129  0.87267221     0.39400
C1073       C  0.51543319  0.90306208  0.34084880     0.36300
C1074       C  0.54852873  0.92517892  0.26318295     0.37000
C1075       C  0.55421620  0.00486308  0.30856175     0.40300
N1076       N  0.63271711  0.95299252  0.87847675    -0.37800
N1077       N  0.61672829  0.98313575  0.30481099    -0.39400
N1078       N  0.51324848  0.86037828  0.40046582    -0.37100
N1079       N  0.49565334  0.89473108  0.33473375    -0.39500
N1080       N  0.55886055  0.97617717  0.38207129    -0.39300
N1081       N  0.55614872  0.02140968  0.31764828    -0.36900
N1082       N  0.53962468  0.95142633  0.19043368    -0.38000
N1083       N  0.54814430  0.90949693  0.25387825    -0.39600
N1084       N  0.57491102  0.91082629  0.91824893    -0.02600
C1085       C  0.58209711  0.89687163  0.92941120     0.00000
C1086       C  0.59518915  0.90559609  0.45763072    -0.22900
C1087       C  0.59612639  0.92526208  0.46428400    -0.23100
C1088       C  0.58344137  0.92798911  0.44010472    -0.00100
H1089       H  0.60156934  0.89717707  0.47334784     0.13700
H1090       H  0.60379835  0.93550060  0.48566705     0.13700
N1091       N  0.32863553  0.91662381  0.93259348    -0.02600
C1092       C  0.30457143  0.90425426  0.93624334     0.00000
C1093       C  0.29579259  0.91104216  0.91035871    -0.22900
C1094       C  0.31493506  0.92742692  0.88978151    -0.23100
C1095       C  0.33473444  0.93045382  0.90419283    -0.00100
H1096       H  0.27717421  0.90307362  0.90522717     0.13700
H1097       H  0.31426773  0.93502646  0.86599831     0.13700
C1098       C  0.54647000  0.99608581  0.73990142     0.43400
N1099       N  0.53318043  0.00737638  0.70047234     0.02200
C1100       C  0.59573176  0.11337700  0.60115616    -0.05600
H1101       H  0.58962180  0.12375166  0.72528313     0.07700
C1102       C  0.50041789  0.07923063  0.71258199    -0.06000
Co1103     Co  0.57204255  0.05303153  0.66414425     0.74200
N1104       N  0.57895090  0.09393913  0.69683498    -0.25200
Co1105     Co  0.55881682  0.09465343  0.65815913     0.74100
C1106       C  0.51919612  0.10100252  0.72759925     0.43500
N1107       N  0.48447015  0.02272734  0.69530457     0.01900
N1108       N  0.53490918  0.09267816  0.69107857     0.02000
N1109       N  0.60432283  0.08624570  0.60509847    -0.46000
H1110       H  0.58500188  0.02952290  0.73016199     0.07700
N1111       N  0.58403735  0.07812447  0.69894074     0.02300
N1112       N  0.53783768  0.09306964  0.61895620     0.02000
C1113       C  0.52668944  0.09758002  0.57130395     0.43600
N1114       N  0.48940383  0.00680152  0.69840839    -0.24600
C1115       C  0.56906231  0.02816290  0.60198434    -0.05500
N1116       N  0.52673382  0.98962805  0.72292135    -0.45700
N1117       N  0.54562240  0.10690629  0.59117635    -0.45900
C1118       C  0.54986955  0.00912314  0.58366244     0.43400
N1119       N  0.58775558  0.08099104  0.62724923     0.02200
N1120       N  0.49017967  0.00665876  0.62688931    -0.24600
N1121       N  0.55614894  0.02492783  0.70098500    -0.25100
N1122       N  0.48510376  0.02239403  0.62383733     0.01900
H1123       H  0.47711026  0.97430542  0.60324917     0.07800
H1124       H  0.48788356  0.06515209  0.58187735     0.07800
N1125       N  0.58252126  0.09661849  0.62537618    -0.25200
N1126       N  0.51189159  0.07538984  0.69048818    -0.24800
N1127       N  0.53517996  0.01066303  0.62825082     0.02200
C1128       C  0.60182896  0.09953382  0.73954323     0.43600
C1129       C  0.47914705  0.99324436  0.72656643    -0.06000
N1130       N  0.51481370  0.07550131  0.61855683    -0.24800
H1131       H  0.48123883  0.06881982  0.71642029     0.07800
N1132       N  0.59782476  0.08096799  0.72394907    -0.46000
H1133       H  0.47997274  0.97869043  0.73593702     0.07800
C1134       C  0.46410339  0.99753550  0.58759243     0.43500
C1135       C  0.56611054  0.01940997  0.72519859    -0.05500
Co1136     Co  0.51165560  0.00724483  0.66367017     0.73800
N1137       N  0.47132173  0.02095626  0.72001569    -0.45700
C1138       C  0.61002407  0.10638561  0.58766056     0.43700
N1139       N  0.52938943  0.99864109  0.60153435    -0.45700
Co1140     Co  0.49854744  0.04898442  0.65690743     0.73900
C1141       C  0.50610654  0.07717896  0.58959505    -0.06000
C1142       C  0.58948282  0.10830482  0.72153913    -0.05600
N1143       N  0.55824039  0.02811608  0.62888715    -0.25100
N1144       N  0.53999669  0.10856522  0.71242468    -0.45900
H1145       H  0.59585638  0.12892431  0.59460446     0.07800
C1146       C  0.47771290  0.99021267  0.60509886    -0.06000
Cl1147     Cl  0.53527257  0.05096957  0.66090853    -0.49000
C1148       C  0.46737140  0.00290669  0.74074152     0.43500
H1149       H  0.58784290  0.04056220  0.59540484     0.07700
N1150       N  0.46928920  0.01744872  0.60071288    -0.45700
N1151       N  0.51230257  0.20514139  0.87674444    -0.02600
C1152       C  0.51334152  0.22511625  0.88132773     0.00000
C1153       C  0.52295852  0.23353716  0.91160367    -0.22900
C1154       C  0.52857675  0.21902138  0.42627763    -0.23100
C1155       C  0.52126745  0.20132024  0.90458843    -0.00100
H1156       H  0.52435499  0.24802428  0.92290939     0.13700
H1157       H  0.53551515  0.22003705  0.45065908     0.13700
N1158       N  0.74493125  0.19706359  0.91866098    -0.02600
C1159       C  0.76897610  0.21193868  0.92244746     0.00000
C1160       C  0.78088531  0.21681687  0.89277096    -0.22900
C1161       C  0.76364499  0.20451409  0.86989140    -0.23100
C1162       C  0.74181182  0.19254118  0.88640463    -0.00100
H1163       H  0.80002443  0.22840366  0.88819438     0.13700
H1164       H  0.76664841  0.20459809  0.84390842     0.13700
C1165       C  0.07305541  0.51822299  0.94169785     0.43400
N1166       N  0.04762235  0.51161019  0.90472002     0.02200
C1167       C  0.04424341  0.59450322  0.80394656    -0.05600
H1168       H  0.03958669  0.60339371  0.92875091     0.07700
C1169       C  0.95923775  0.51870978  0.93478423    -0.06000
Co1170     Co  0.06140856  0.55652153  0.86634820     0.74200
N1171       N  0.04389095  0.58019058  0.90197744    -0.25200
Co1172     Co  0.01609256  0.56471557  0.86890382     0.74100
C1173       C  0.96708341  0.54135125  0.94773542     0.43500
N1174       N  0.97693519  0.48235674  0.91160373     0.01900
N1175       N  0.99047144  0.54807394  0.90744351     0.02000
N1176       N  0.07295975  0.58802381  0.80350679    -0.46000
H1177       H  0.09583430  0.55874146  0.92848578     0.07700
N1178       N  0.06102108  0.57698875  0.90101479     0.02300
N1179       N  0.98842910  0.54827869  0.83568188     0.02000
C1180       C  0.96428791  0.54130602  0.79674084     0.43600
N1181       N  0.99412976  0.47925826  0.91000475    -0.24600
C1182       C  0.07627903  0.54226928  0.80593963    -0.05500
N1183       N  0.05306491  0.50075918  0.92726769    -0.45700
N1184       N  0.98432152  0.55886102  0.81087519    -0.45900
C1185       C  0.06779610  0.52004716  0.79120266     0.43400
N1186       N  0.05858093  0.57706837  0.82965938     0.02200
N1187       N  0.99191306  0.48048215  0.83836327    -0.24600
N1188       N  0.06320260  0.53506967  0.90301364    -0.25100
N1189       N  0.97448931  0.48322324  0.83994205     0.01900
H1190       H  0.99831229  0.46056254  0.80729534     0.07800
H1191       H  0.94082100  0.50091280  0.81125539     0.07800
N1192       N  0.04154355  0.58040646  0.83050706    -0.25200
N1193       N  0.97479650  0.52461783  0.91011636    -0.24800
N1194       N  0.04512892  0.51241198  0.83287429     0.02200
C1195       C  0.07215956  0.60227471  0.93732335     0.43600
C1196       C  0.99053442  0.46335818  0.93447024    -0.06000
N1197       N  0.97232634  0.52490853  0.83854450    -0.24800
H1198       H  0.94320247  0.50103168  0.94092738     0.07800
N1199       N  0.07832905  0.58997819  0.92158800    -0.46000
H1200       H  0.00101282  0.45632714  0.93845886     0.07800
C1201       C  0.96570435  0.46159999  0.79941619     0.43500
C1202       C  0.07995464  0.54095973  0.92550293    -0.05500
Co1203     Co  0.01965957  0.49545213  0.87151438     0.73800
N1204       N  0.96138516  0.46912548  0.93613231    -0.45700
C1205       C  0.06493528  0.59922711  0.78606286     0.43700
N1206       N  0.04853104  0.50222562  0.80935974    -0.45700
Co1207     Co  0.97411872  0.50342446  0.87526117     0.73900
C1208       C  0.95621789  0.51881713  0.81504085    -0.06000
C1209       C  0.04933458  0.59589808  0.92429880    -0.05600
N1210       N  0.06112353  0.53577349  0.83137479    -0.25100
N1211       N  0.98622349  0.55878673  0.92905416    -0.45900
H1212       H  0.03305423  0.60049710  0.79785575     0.07800
C1213       C  0.98774216  0.46682103  0.81366740    -0.06000
Cl1214     Cl  0.01779091  0.53000096  0.87070654    -0.49000
C1215       C  0.96886596  0.45675227  0.95183558     0.43500
H1216       H  0.09175726  0.56019069  0.79928267     0.07700
N1217       N  0.95817297  0.47182671  0.81740814    -0.45700
N1218       N  0.17046663  0.49666150  0.60827190    -0.02600
C1219       C  0.18907692  0.49452623  0.60925931     0.00000
C1220       C  0.19277795  0.48966780  0.64137553    -0.22900
C1221       C  0.17686814  0.48961161  0.66095132    -0.23100
C1222       C  0.16332415  0.49385694  0.64040930    -0.00100
H1223       H  0.20655507  0.48760905  0.64982586     0.13700
H1224       H  0.17568051  0.48730798  0.68754847     0.13700
N1225       N  0.87742684  0.32032448  0.62569150    -0.02600
C1226       C  0.86277176  0.29651165  0.62139748     0.00000
C1227       C  0.85876293  0.28343324  0.65099411    -0.22900
C1228       C  0.87089819  0.29953179  0.67440914    -0.23100
C1229       C  0.88211709  0.32194232  0.65838350    -0.00100
H1230       H  0.84720806  0.26418572  0.65534144     0.13700
H1231       H  0.87070226  0.29536934  0.70055494     0.13700
N1232       N  0.85261055  0.54074330  0.59727487    -0.02600
C1233       C  0.83013541  0.53539891  0.59693407     0.00000
C1234       C  0.81874537  0.52464297  0.62722037    -0.22900
C1235       C  0.83456422  0.52360766  0.64691161    -0.23100
C1236       C  0.85507748  0.53354637  0.62805581    -0.00100
H1237       H  0.80145443  0.51994263  0.63500749     0.13700
H1238       H  0.83187464  0.51740861  0.67266348     0.13700
N1239       N  0.17655663  0.73420208  0.08486522    -0.02600
C1240       C  0.19344334  0.75823774  0.08379331     0.00000
C1241       C  0.19815334  0.76654448  0.61466011    -0.22900
C1242       C  0.18354527  0.74708501  0.63596771    -0.23100
C1243       C  0.17078040  0.72764071  0.61716975    -0.00100
H1244       H  0.21074282  0.78476651  0.62114621     0.13700
H1245       H  0.18247690  0.74701183  0.66243737     0.13700
C1246       C  0.58444455  0.55120746  0.61168946     0.43400
N1247       N  0.56809491  0.55724510  0.65044630     0.02200
C1248       C  0.47298576  0.46778980  0.75203442    -0.05600
H1249       H  0.45476869  0.46536374  0.62524777     0.07700
C1250       C  0.46861868  0.54737486  0.63285361    -0.06000
Co1251     Co  0.53244191  0.51117814  0.68947932     0.74200
N1252       N  0.48587782  0.48693172  0.65481693    -0.25200
Co1253     Co  0.47663015  0.50058690  0.69152146     0.74100
C1254       C  0.45006874  0.52509860  0.61900664     0.43500
N1255       N  0.52904443  0.58461762  0.65260926     0.01900
N1256       N  0.46792082  0.51778584  0.65623616     0.02000
N1257       N  0.50974296  0.47560833  0.74962039    -0.46000
H1258       H  0.56202487  0.51093526  0.62597188     0.07700
N1259       N  0.50718251  0.49101395  0.65463168     0.02300
N1260       N  0.46890315  0.51531059  0.72810566     0.02000
C1261       C  0.45309450  0.52021980  0.76870683     0.43600
N1262       N  0.55030828  0.58868155  0.65047203    -0.24600
C1263       C  0.56489533  0.52562041  0.75070137    -0.05500
N1264       N  0.58501124  0.56840025  0.62687585    -0.45700
N1265       N  0.45271235  0.50357087  0.75245660    -0.45900
C1266       C  0.58191944  0.54779317  0.76597437     0.43400
N1267       N  0.50735499  0.48850649  0.72648456     0.02200
N1268       N  0.55151650  0.58629458  0.72247128    -0.24600
N1269       N  0.55715951  0.53390028  0.65223960    -0.25100
N1270       N  0.53019274  0.58203455  0.72432036     0.01900
H1271       H  0.58331185  0.60692115  0.75092158     0.07800
H1272       H  0.47517390  0.56081268  0.75636251     0.07800
N1273       N  0.48600809  0.48424068  0.72719549    -0.25200
N1274       N  0.47869536  0.54110321  0.65568082    -0.24800
N1275       N  0.56852392  0.55549659  0.72276722     0.02200
C1276       C  0.48939316  0.46843121  0.61473872     0.43600
C1277       C  0.56300753  0.60577767  0.62599969    -0.06000
N1278       N  0.47966997  0.53862994  0.72731144    -0.24800
H1279       H  0.47262279  0.56500383  0.62825092     0.07800
N1280       N  0.50993224  0.48029428  0.63136143    -0.46000
H1281       H  0.58161924  0.61409018  0.61977447     0.07800
C1282       C  0.54939012  0.60438941  0.76382324     0.43500
C1283       C  0.56621942  0.52845623  0.62881255    -0.05500
Co1284     Co  0.56022328  0.57243773  0.68622673     0.73800
N1285       N  0.52643993  0.59815225  0.63098976    -0.45700
C1286       C  0.48899884  0.46249366  0.76722701     0.43700
N1287       N  0.58361752  0.56565670  0.74710979    -0.45700
Co1288     Co  0.50428527  0.56182432  0.69000486     0.73900
C1289       C  0.47071864  0.54340755  0.75185903    -0.06000
C1290       C  0.47325919  0.47274096  0.63035857    -0.05600
N1291       N  0.55743057  0.53211193  0.72428511    -0.25100
N1292       N  0.45035213  0.50742774  0.63499533    -0.45900
H1293       H  0.45435100  0.45973107  0.75770511     0.07800
C1294       C  0.56491899  0.60026831  0.74646689    -0.06000
Cl1295     Cl  0.51838563  0.53651978  0.68917564    -0.49000
C1296       C  0.54700936  0.61201329  0.61311709     0.43500
H1297       H  0.55932601  0.50768049  0.75806688     0.07700
N1298       N  0.52820404  0.59263823  0.74858503    -0.45700
N1299       N  0.46953316  0.34106192  0.93810773    -0.02600
C1300       C  0.46898433  0.32093818  0.94007886     0.00000
C1301       C  0.46470622  0.31138676  0.97226949    -0.22900
C1302       C  0.46273842  0.32601567  0.99082737    -0.23100
C1303       C  0.46569253  0.34410102  0.96953450    -0.00100
H1304       H  0.46409568  0.29592386  0.98144579     0.13700
H1305       H  0.46115471  0.32471641  0.51740650     0.13700
N1306       N  0.32537356  0.49962434  0.95720532    -0.02600
C1307       C  0.30443465  0.49772229  0.95751707     0.00000
C1308       C  0.29406595  0.49200594  0.92705035    -0.22900
C1309       C  0.30891043  0.49058069  0.90713756    -0.23100
C1310       C  0.32793086  0.49528648  0.92593675    -0.00100
H1311       H  0.27764634  0.48973396  0.91986656     0.13700
H1312       H  0.30645484  0.48710924  0.88135753     0.13700
N1313       N  0.70205697  0.55627562  0.96076766    -0.02600
C1314       C  0.72309475  0.55839626  0.96281230     0.00000
C1315       C  0.73004103  0.55672515  0.93210067    -0.22900
C1316       C  0.71338831  0.55401619  0.91034548    -0.23100
C1317       C  0.69644748  0.55374351  0.92828726    -0.00100
H1318       H  0.74588497  0.55772526  0.92611138     0.13700
H1319       H  0.71366063  0.55258002  0.88411248     0.13700
N1320       N  0.57690589  0.73577647  0.93336221    -0.02600
C1321       C  0.58543787  0.75941839  0.93193227     0.00000
C1322       C  0.60199231  0.77195319  0.90626186    -0.22900
C1323       C  0.60363732  0.75596054  0.89097192    -0.23100
C1324       C  0.58813067  0.73406846  0.90775339    -0.00100
H1325       H  0.61017620  0.79038654  0.89753453     0.13700
H1326       H  0.61348912  0.75947821  0.86833963     0.13700
C1327       C  0.41870417  0.50174778  0.85043594    -0.04600
C1328       C  0.40184778  0.50675278  0.84304605     0.09600
C1329       C  0.40132244  0.51545760  0.81082059    -0.01900
C1330       C  0.41810401  0.51996556  0.78653115    -0.00200
C1331       C  0.43499812  0.51496987  0.79393063    -0.03800
C1332       C  0.43505656  0.50563404  0.82586051     0.03200
C1333       C  0.38466976  0.50315323  0.86907936     0.10000
C1334       C  0.38329892  0.51956206  0.80262385     0.35900
C1335       C  0.45259677  0.50090144  0.83377165     0.39400
C1336       C  0.38841720  0.52301716  0.88356207    -0.04200
C1337       C  0.37057502  0.52024494  0.90424977     0.03000
C1338       C  0.34888941  0.49743907  0.91109755    -0.03800
C1339       C  0.34548200  0.47747015  0.89701505     0.00000
C1340       C  0.36351228  0.48026596  0.87678441    -0.02600
C1341       C  0.41020197  0.54659169  0.87558471     0.36700
C1342       C  0.32262179  0.45428923  0.90085766     0.40300
C1343       C  0.37350162  0.54139690  0.91475807     0.39400
C1344       C  0.35982937  0.45972302  0.86249200     0.36300
C1345       C  0.41936907  0.49288176  0.88346900     0.37000
C1346       C  0.41790869  0.52969879  0.75389407     0.40300
N1347       N  0.37627701  0.55875167  0.92196384    -0.37800
N1348       N  0.42753738  0.56537256  0.86899445    -0.39400
N1349       N  0.30434711  0.43578802  0.90329675    -0.37100
N1350       N  0.35699837  0.44335290  0.85119968    -0.39500
N1351       N  0.36883712  0.52272043  0.79611607    -0.39300
N1352       N  0.41786065  0.53766495  0.72795713    -0.36900
N1353       N  0.46669304  0.49723544  0.84010678    -0.38000
N1354       N  0.41983995  0.48578466  0.90984973    -0.39600
C1355       C  0.39007866  0.51002796  0.58945474    -0.04600
C1356       C  0.39459360  0.51541188  0.55519914     0.09600
C1357       C  0.41735856  0.52404504  0.54208178    -0.01900
C1358       C  0.43548971  0.52730705  0.56306401    -0.00200
C1359       C  0.43082962  0.52146040  0.59719383    -0.03800
C1360       C  0.40805717  0.51275533  0.61036513     0.03200
C1361       C  0.37507889  0.51084781  0.53251831     0.10000
C1362       C  0.42196476  0.52924568  0.50686014     0.35900
C1363       C  0.40313019  0.50659406  0.64541366     0.39400
C1364       C  0.37236430  0.52915574  0.52275312    -0.04200
C1365       C  0.35511571  0.52521653  0.49935255     0.03000
C1366       C  0.34076496  0.50304349  0.98450538    -0.03800
C1367       C  0.34294711  0.48450807  0.99569907     0.00000
C1368       C  0.35983632  0.48830360  0.51979624    -0.02600
C1369       C  0.38769427  0.55220327  0.53645524     0.36700
C1370       C  0.32722459  0.46099978  0.98366644     0.40300
C1371       C  0.35258251  0.54423152  0.48999852     0.39400
C1372       C  0.36154612  0.46897790  0.53141630     0.36300
C1373       C  0.36690878  0.50168632  0.60307667     0.37000
C1374       C  0.45886646  0.53624068  0.54950788     0.40300
N1375       N  0.35064683  0.55970258  0.98300037    -0.37800
N1376       N  0.39998973  0.57058259  0.54740055    -0.39400
N1377       N  0.31456863  0.44180435  0.97532166    -0.37100
N1378       N  0.36288787  0.45359643  0.54094571    -0.39500
N1379       N  0.42521727  0.53239258  0.97839898    -0.39300
N1380       N  0.47755256  0.54334034  0.53887157    -0.36900
N1381       N  0.39912643  0.50150802  0.67334753    -0.38000
N1382       N  0.34843320  0.49513222  0.61389872    -0.39600
C1383       C  0.56010255  0.68538489  0.84807708    -0.04600
C1384       C  0.56994639  0.67284951  0.85781365     0.09600
C1385       C  0.58448149  0.67928434  0.88562877    -0.01900
C1386       C  0.58962981  0.69863219  0.90325151    -0.00200
C1387       C  0.58020673  0.71154660  0.89301157    -0.03800
C1388       C  0.56549589  0.70486916  0.86523678     0.03200
C1389       C  0.56644196  0.65427113  0.83666085     0.10000
C1390       C  0.59487872  0.66657040  0.89516079     0.35900
C1391       C  0.55713792  0.71900942  0.85283240     0.39400
C1392       C  0.58252170  0.66111321  0.81008313    -0.04200
C1393       C  0.57721952  0.64480300  0.78644671     0.03000
C1394       C  0.55595058  0.62128654  0.78967683    -0.03800
C1395       C  0.54040267  0.61420247  0.81720670     0.00000
C1396       C  0.54564824  0.63068451  0.84057680    -0.02600
C1397       C  0.60415564  0.68531563  0.80650183     0.36700
C1398       C  0.51896665  0.58993615  0.82157399     0.40300
C1399       C  0.59287415  0.65294000  0.75767760     0.39400
C1400       C  0.52943100  0.62364858  0.86833952     0.36300
C1401       C  0.54520132  0.67880567  0.81938662     0.37000
C1402       C  0.60589344  0.70615177  0.93038101     0.40300
N1403       N  0.60535998  0.65959668  0.73468341    -0.37800
N1404       N  0.62141223  0.70460938  0.80378927    -0.39400
N1405       N  0.50185783  0.57058872  0.82511205    -0.37100
N1406       N  0.51658661  0.61817127  0.89056267    -0.39500
N1407       N  0.60320930  0.65643015  0.90265846    -0.39300
N1408       N  0.61906208  0.71194070  0.95182090    -0.36900
N1409       N  0.55079704  0.73043057  0.84229864    -0.38000
N1410       N  0.53335032  0.67352080  0.79648882    -0.39600
C1411       C  0.58260952  0.70840311  0.51284371    -0.04600
C1412       C  0.56119547  0.68519131  0.51410294     0.09600
C1413       C  0.54341404  0.67923640  0.99017631    -0.01900
C1414       C  0.54803989  0.69643280  0.96436017    -0.00200
C1415       C  0.56963763  0.71976435  0.96299110    -0.03800
C1416       C  0.58659341  0.72527057  0.98775871     0.03200
C1417       C  0.55764747  0.66641262  0.53967864     0.10000
C1418       C  0.52138953  0.65532539  0.99110010     0.35900
C1419       C  0.61046968  0.74717836  0.98397469     0.39400
C1420       C  0.54841699  0.66433655  0.57132840    -0.04200
C1421       C  0.54586766  0.64726870  0.59567798     0.03000
C1422       C  0.55218504  0.63174816  0.58849226    -0.03800
C1423       C  0.56192076  0.63422962  0.55699230     0.00000
C1424       C  0.56455933  0.65139633  0.53272420    -0.02600
C1425       C  0.54146814  0.67980209  0.57874163     0.36700
C1426       C  0.56865031  0.61868643  0.54912980     0.40300
C1427       C  0.53763344  0.64640896  0.62859051     0.39400
C1428       C  0.57421842  0.65345435  0.50038003     0.36300
C1429       C  0.60064547  0.71422064  0.53712767     0.37000
C1430       C  0.53134365  0.68920128  0.93788100     0.40300
N1431       N  0.53124357  0.64585683  0.65491388    -0.37800
N1432       N  0.53589386  0.69214297  0.58453855    -0.39400
N1433       N  0.57412750  0.60636062  0.54284125    -0.37100
N1434       N  0.58095606  0.65453201  0.97472320    -0.39500
N1435       N  0.50383725  0.63622955  0.99189114    -0.39300
N1436       N  0.51765181  0.68230982  0.91701968    -0.36900
N1437       N  0.62995275  0.76403131  0.98068525    -0.38000
N1438       N  0.61500008  0.71875141  0.55649787    -0.39600
C1439       C  0.60262685  0.54341255  0.85174410    -0.04600
C1440       C  0.62652190  0.55202880  0.84506402     0.09600
C1441       C  0.63623218  0.56082240  0.81278685    -0.01900
C1442       C  0.62187262  0.56021679  0.78708176    -0.00200
C1443       C  0.59774132  0.55088589  0.79350877    -0.03800
C1444       C  0.58835093  0.54308995  0.82605318     0.03200
C1445       C  0.64139632  0.55085997  0.87136962     0.10000
C1446       C  0.66090617  0.56994628  0.80594642     0.35900
C1447       C  0.56424983  0.53551057  0.83321120     0.39400
C1448       C  0.64205316  0.53079715  0.87505863    -0.04200
C1449       C  0.65945280  0.53139553  0.89474890     0.03000
C1450       C  0.67565676  0.55169003  0.91231674    -0.03800
C1451       C  0.67426155  0.57140238  0.90964139     0.00000
C1452       C  0.65700024  0.57084879  0.88947306    -0.02600
C1453       C  0.62534903  0.50985721  0.85742372     0.36700
C1454       C  0.69227317  0.59337144  0.92422841     0.40300
C1455       C  0.66165792  0.51169883  0.89499260     0.39400
C1456       C  0.65598501  0.59130775  0.88601750     0.36300
C1457       C  0.59271875  0.53452755  0.88492235     0.37000
C1458       C  0.63176693  0.56864678  0.75384922     0.40300
N1459       N  0.66351701  0.49607081  0.89486470    -0.37800
N1460       N  0.61192966  0.49313460  0.84346580    -0.39400
N1461       N  0.70671855  0.61129418  0.93499624    -0.37100
N1462       N  0.65512936  0.60760682  0.88326371    -0.39500
N1463       N  0.68059365  0.57718905  0.80061544    -0.39300
N1464       N  0.63969133  0.57544430  0.72734754    -0.36900
N1465       N  0.54518327  0.52997913  0.83894705    -0.38000
N1466       N  0.58489549  0.52738693  0.91143061    -0.39600
C1467       C  0.63828177  0.55262442  0.58608034    -0.04600
C1468       C  0.63890921  0.55704009  0.55162808     0.09600
C1469       C  0.62235683  0.56075026  0.53717838    -0.01900
C1470       C  0.60506414  0.55966656  0.55698443    -0.00200
C1471       C  0.60434831  0.55513417  0.59141665    -0.03800
C1472       C  0.62102411  0.55158488  0.60588937     0.03200
C1473       C  0.65597540  0.55627901  0.53025432     0.10000
C1474       C  0.62270188  0.56494405  0.50173290     0.35900
C1475       C  0.61983548  0.54593625  0.64107891     0.39400
C1476       C  0.64785075  0.53560456  0.51384833    -0.04200
C1477       C  0.66362320  0.53534305  0.99231402     0.03000
C1478       C  0.68749168  0.55565222  0.98673012    -0.03800
C1479       C  0.69570101  0.57573515  0.50451132     0.00000
C1480       C  0.68009670  0.57612725  0.52614666    -0.02600
C1481       C  0.62330492  0.51478451  0.51890697     0.36700
C1482       C  0.72007835  0.59665413  0.49970533     0.40300
C1483       C  0.65538209  0.51335879  0.97761711     0.39400
C1484       C  0.68865142  0.59717031  0.54370656     0.36300
C1485       C  0.65492499  0.54835609  0.60098387     0.37000
C1486       C  0.58701954  0.56165746  0.54168684     0.40300
N1487       N  0.64845752  0.49531224  0.96709778    -0.37800
N1488       N  0.60378746  0.49849785  0.02225680    -0.39400
N1489       N  0.73939890  0.61377673  0.49634981    -0.37100
N1490       N  0.69539822  0.61388874  0.55786033    -0.39500
N1491       N  0.62367188  0.56932902  0.97344633    -0.39300
N1492       N  0.57244207  0.56289042  0.52930576    -0.36900
N1493       N  0.61866003  0.54115482  0.66910035    -0.38000
N1494       N  0.66822505  0.54495410  0.61281800    -0.39600
C1495       C  0.47106512  0.40078800  0.79857349    -0.04600
C1496       C  0.47472585  0.40358080  0.83259644     0.09600
C1497       C  0.48172053  0.42520335  0.84526544    -0.01900
C1498       C  0.48554370  0.44416088  0.82395614    -0.00200
C1499       C  0.48229632  0.44161898  0.78985633    -0.03800
C1500       C  0.47463717  0.41972550  0.77724756     0.03200
C1501       C  0.47209443  0.38427110  0.85554121     0.10000
C1502       C  0.48566406  0.42811410  0.88027274     0.35900
C1503       C  0.47066816  0.41682119  0.74230715     0.39400
C1504       C  0.49211688  0.38402481  0.86241804    -0.04200
C1505       C  0.49092527  0.36860067  0.88825896     0.03000
C1506       C  0.47002830  0.35421880  0.90845222    -0.03800
C1507       C  0.44948574  0.35327528  0.89984653     0.00000
C1508       C  0.45045130  0.36807426  0.87327182    -0.02600
C1509       C  0.51427947  0.40044937  0.84367937     0.36700
C1510       C  0.42712806  0.33662010  0.91785288     0.40300
C1511       C  0.51162426  0.36844037  0.89429882     0.39400
C1512       C  0.42933305  0.36702319  0.86443461     0.36300
C1513       C  0.46428426  0.37870053  0.78552538     0.37000
C1514       C  0.49330338  0.46641957  0.83728993     0.40300
N1515       N  0.52880934  0.36924628  0.89792982    -0.37800
N1516       N  0.53195848  0.41364598  0.82879819    -0.39400
N1517       N  0.40898472  0.32313257  0.93154397    -0.37100
N1518       N  0.41247187  0.36610949  0.85716315    -0.39500
N1519       N  0.48884387  0.43031088  0.90817529    -0.39300
N1520       N  0.49949281  0.48394417  0.84877308    -0.36900
N1521       N  0.46739981  0.41454889  0.71443326    -0.38000
N1522       N  0.45901539  0.36111056  0.77511122    -0.39600
C1523       C  0.48934405  0.40627141  0.49724787    -0.04600
C1524       C  0.47060194  0.40055127  0.51871381     0.09600
C1525       C  0.44914138  0.37735602  0.51997630    -0.01900
C1526       C  0.44704295  0.35955540  0.50168826    -0.00200
C1527       C  0.46618829  0.36446321  0.98170621    -0.03800
C1528       C  0.48750969  0.38798971  0.97962515     0.03200
C1529       C  0.47479346  0.41782571  0.54337464     0.10000
C1530       C  0.42958679  0.37155822  0.54141138     0.35900
C1531       C  0.50863993  0.39334037  0.96291763     0.39400
C1532       C  0.46932804  0.43447178  0.53634475    -0.04200
C1533       C  0.47366155  0.45073552  0.55979471     0.03000
C1534       C  0.48365666  0.45057534  0.59045256    -0.03800
C1535       C  0.48935898  0.43399894  0.59720554     0.00000
C1536       C  0.48480961  0.41768111  0.57390822    -0.02600
C1537       C  0.45974335  0.43514626  0.50462688     0.36700
C1538       C  0.49979236  0.43348023  0.62829015     0.40300
C1539       C  0.46904673  0.46849023  0.55161021     0.39400
C1540       C  0.49064961  0.40074194  0.58122540     0.36300
C1541       C  0.51106439  0.43042311  0.49487602     0.37000
C1542       C  0.42530245  0.33544819  0.50523073     0.40300
N1543       N  0.46552048  0.48277354  0.54500902    -0.37800
N1544       N  0.45218858  0.43567102  0.47920281    -0.39400
N1545       N  0.50827102  0.43314302  0.65296151    -0.37100
N1546       N  0.49530646  0.38723059  0.58698301    -0.39500
N1547       N  0.41401927  0.36699623  0.55853157    -0.39300
N1548       N  0.40798120  0.31621869  0.50845778    -0.36900
N1549       N  0.52625600  0.39851788  0.95073979    -0.38000
N1550       N  0.52892472  0.44912703  0.99357550    -0.39600
C1551       C  0.79532145  0.54209323  0.02857671    -0.04600
C1552       C  0.79076211  0.55703406  0.04335181     0.09600
C1553       C  0.80348947  0.56890516  0.57120372    -0.01900
C1554       C  0.81882187  0.56379093  0.58637774    -0.00200
C1555       C  0.82123749  0.54647789  0.57418047    -0.03800
C1556       C  0.81033005  0.53650395  0.04385169     0.03200
C1557       C  0.77279028  0.56071306  0.02887666     0.10000
C1558       C  0.79966835  0.58517562  0.58539154     0.35900
C1559       C  0.81368647  0.52023295  0.02882527     0.39400
C1560       C  0.74813451  0.54352874  0.03574217    -0.04200
C1561       C  0.73096343  0.54446623  0.01736797     0.03000
C1562       C  0.73846285  0.56258386  0.99183573    -0.03800
C1563       C  0.76319530  0.58153279  0.98833586     0.00000
C1564       C  0.78024764  0.58048746  0.00661240    -0.02600
C1565       C  0.74062131  0.52408786  0.56033625     0.36700
C1566       C  0.77130432  0.60138211  0.96405877     0.40300
C1567       C  0.70578370  0.52555604  0.52348595     0.39400
C1568       C  0.80557711  0.59906195  0.00118710     0.36300
C1569       C  0.78371820  0.53171007  0.99816828     0.37000
C1570       C  0.83095297  0.57534657  0.61595119     0.40300
N1571       N  0.68597788  0.51030163  0.52984328    -0.37800
N1572       N  0.73470935  0.50865998  0.58015832    -0.39400
N1573       N  0.77777843  0.61718782  0.94466978    -0.37100
N1574       N  0.82580108  0.61385858  0.99696232    -0.39500
N1575       N  0.79649791  0.59807234  0.59669959    -0.39300
N1576       N  0.84029778  0.58448943  0.63971921    -0.36900
N1577       N  0.81581123  0.50730415  0.01543075    -0.38000
N1578       N  0.77439154  0.52342171  0.97395739    -0.39600
C1579       C  0.21736002  0.48738687  0.03563478    -0.04600
C1580       C  0.24186752  0.50351217  0.04264572     0.09600
C1581       C  0.24896214  0.51923776  0.56808996    -0.01900
C1582       C  0.23129781  0.51773101  0.58741904    -0.00200
C1583       C  0.20660940  0.50015937  0.58242977    -0.03800
C1584       C  0.19949190  0.48505680  0.05592548     0.03200
C1585       C  0.26072053  0.50400187  0.02366026     0.10000
C1586       C  0.27403661  0.53577650  0.57552212     0.35900
C1587       C  0.17450174  0.46683687  0.05033399     0.39400
C1588       C  0.27425060  0.52187436  0.99822257    -0.04200
C1589       C  0.29029760  0.52097368  0.97842924     0.03000
C1590       C  0.29353864  0.50250029  0.98437928    -0.03800
C1591       C  0.28125391  0.48579296  0.51088004     0.00000
C1592       C  0.26490975  0.48656521  0.53032326    -0.02600
C1593       C  0.27103766  0.54078555  0.99174822     0.36700
C1594       C  0.28331282  0.46613360  0.51691205     0.40300
C1595       C  0.30248791  0.53839813  0.95060071     0.39400
C1596       C  0.25130825  0.46842251  0.55691623     0.36300
C1597       C  0.21060403  0.47282428  0.00787712     0.37000
C1598       C  0.23862619  0.53415490  0.61304165     0.40300
N1599       N  0.31216283  0.55224332  0.92836102    -0.37800
N1600       N  0.26855397  0.55594000  0.98677900    -0.39400
N1601       N  0.28429537  0.45005430  0.52252951    -0.37100
N1602       N  0.24036822  0.45394204  0.57809102    -0.39500
N1603       N  0.29403347  0.54888662  0.58151763    -0.39300
N1604       N  0.24438230  0.54722120  0.63345804    -0.36900
N1605       N  0.15462075  0.45216659  0.04552695    -0.38000
N1606       N  0.20533259  0.46133032  0.98559217    -0.39600
C1607       C  0.95311532  0.55720075  0.71037809    -0.04600
C1608       C  0.92847043  0.54703211  0.71274802     0.09600
C1609       C  0.91613544  0.53679187  0.74334689    -0.01900
C1610       C  0.92801268  0.53545834  0.77098457    -0.00200
C1611       C  0.95246728  0.54473513  0.76839718    -0.03800
C1612       C  0.96517290  0.55622331  0.73825454     0.03200
C1613       C  0.91465344  0.54581740  0.68319232     0.10000
C1614       C  0.89101357  0.52735496  0.74621124     0.35900
C1615       C  0.99037166  0.56606957  0.73549694     0.39400
C1616       C  0.89881012  0.52360460  0.66981817    -0.04200
C1617       C  0.87984123  0.51972421  0.65032603     0.03000
C1618       C  0.87762522  0.53860886  0.64212225    -0.03800
C1619       C  0.89499454  0.56152723  0.65301838     0.00000
C1620       C  0.91354915  0.56512443  0.67334366    -0.02600
C1621       C  0.90114621  0.50425063  0.67818243     0.36700
C1622       C  0.89221919  0.58073548  0.64702901     0.40300
C1623       C  0.86138718  0.49564031  0.64198184     0.39400
C1624       C  0.93058676  0.58828257  0.68596859     0.36300
C1625       C  0.96584593  0.56813906  0.67911573     0.37000
C1626       C  0.91503141  0.52477790  0.80219569     0.40300
N1627       N  0.84682297  0.47604000  0.63655580    -0.37800
N1628       N  0.90313630  0.48890661  0.68485263    -0.39400
N1629       N  0.89029257  0.59631676  0.64325523    -0.37100
N1630       N  0.94426742  0.60678455  0.69590896    -0.39500
N1631       N  0.87099553  0.51985539  0.74828856    -0.39300
N1632       N  0.90455896  0.51620861  0.82699068    -0.36900
N1633       N  0.01047623  0.57391811  0.73329617    -0.38000
N1634       N  0.97600243  0.57692433  0.65415875    -0.39600
C1635       C  0.91935962  0.55013917  0.97095437    -0.04600
C1636       C  0.92000396  0.54865066  0.00564632     0.09600
C1637       C  0.93717307  0.54628294  0.02112516    -0.01900
C1638       C  0.95300896  0.54457229  0.00208744    -0.00200
C1639       C  0.95179975  0.54521454  0.96745705    -0.03800
C1640       C  0.93517284  0.54838200  0.95191015     0.03200
C1641       C  0.90110533  0.54708041  0.02603150     0.10000
C1642       C  0.93809709  0.54503748  0.05675154     0.35900
C1643       C  0.93393846  0.54920710  0.91632286     0.39400
C1644       C  0.88032686  0.52443492  0.03614546    -0.04200
C1645       C  0.86332695  0.52250372  0.05749019     0.03000
C1646       C  0.86685794  0.54313482  0.06906310    -0.03800
C1647       C  0.88625472  0.56569882  0.55664983     0.00000
C1648       C  0.90396592  0.56782546  0.03587611    -0.02600
C1649       C  0.87679689  0.50304887  0.02525370     0.36700
C1650       C  0.88831591  0.58687351  0.56477299     0.40300
C1651       C  0.84198864  0.49918105  0.06766802     0.39400
C1652       C  0.92506034  0.59114725  0.02505814     0.36300
C1653       C  0.90196940  0.55286550  0.95496854     0.37000
C1654       C  0.97031874  0.54173936  0.01813956     0.40300
N1655       N  0.82466147  0.48060121  0.07518998    -0.37800
N1656       N  0.87406640  0.48603038  0.01655610    -0.39400
N1657       N  0.88990660  0.60393301  0.57047544    -0.37100
N1658       N  0.94128670  0.60944665  0.51534810    -0.39500
N1659       N  0.93874184  0.54403801  0.08518343    -0.39300
N1660       N  0.98416334  0.53950433  0.03090212    -0.36900
N1661       N  0.93300302  0.54984371  0.88791907    -0.38000
N1662       N  0.88808312  0.55507838  0.94230444    -0.39600
C1663       C  0.92592395  0.37161865  0.71254793    -0.04600
C1664       C  0.91462426  0.38307710  0.71623808     0.09600
C1665       C  0.89283507  0.37466064  0.70070238    -0.01900
C1666       C  0.88286291  0.35545844  0.68033360    -0.00200
C1667       C  0.89425131  0.34403932  0.67635139    -0.03800
C1668       C  0.91523162  0.35152568  0.69387698     0.03200
C1669       C  0.92533798  0.40342551  0.73773696     0.10000
C1670       C  0.88009001  0.38496252  0.70724356     0.35900
C1671       C  0.92503572  0.33772738  0.69465189     0.39400
C1672       C  0.93895889  0.42713705  0.72363992    -0.04200
C1673       C  0.95127404  0.44634138  0.74402538     0.03000
C1674       C  0.95009879  0.44181166  0.77844607    -0.03800
C1675       C  0.93514305  0.41820231  0.79263256     0.00000
C1676       C  0.92275798  0.39899830  0.77228149    -0.02600
C1677       C  0.94061517  0.43167838  0.68817087     0.36700
C1678       C  0.93259271  0.41373934  0.82814318     0.40300
C1679       C  0.96521046  0.47075621  0.72967026     0.39400
C1680       C  0.90755796  0.37466591  0.78678114     0.36300
C1681       C  0.94832034  0.38022106  0.72869590     0.37000
C1682       C  0.85968522  0.34602064  0.66628101     0.40300
N1683       N  0.97618451  0.49024919  0.71826927    -0.37800
N1684       N  0.94180239  0.43521924  0.65985592    -0.39400
N1685       N  0.93046181  0.41028964  0.85647663    -0.37100
N1686       N  0.89539299  0.35524960  0.79833244    -0.39500
N1687       N  0.86985665  0.39304003  0.71289037    -0.39300
N1688       N  0.84097228  0.33850259  0.65583370    -0.36900
N1689       N  0.93279268  0.32663990  0.69596935    -0.38000
N1690       N  0.96619247  0.38714099  0.74155992    -0.39600
C1691       C  0.93260328  0.39377238  0.99394505    -0.04600
C1692       C  0.92577524  0.39757278  0.02389115     0.09600
C1693       C  0.93260640  0.42063570  0.02978670    -0.01900
C1694       C  0.94648004  0.43989418  0.00603758    -0.00200
C1695       C  0.95399570  0.43628900  0.97648044    -0.03800
C1696       C  0.94686787  0.41308079  0.97043566     0.03200
C1697       C  0.91303301  0.37763991  0.05029411     0.10000
C1698       C  0.92571262  0.42457052  0.06064465     0.35900
C1699       C  0.95378830  0.40886409  0.93982963     0.39400
C1700       C  0.92634219  0.37264370  0.07127798    -0.04200
C1701       C  0.91460598  0.35331994  0.09529526     0.03000
C1702       C  0.88914363  0.33989943  0.60037072    -0.03800
C1703       C  0.87593961  0.34523088  0.57935977     0.00000
C1704       C  0.88788420  0.36335865  0.05377002    -0.02600
C1705       C  0.95221386  0.38713262  0.06753338     0.36700
C1706       C  0.85023389  0.33163603  0.58332055     0.40300
C1707       C  0.92821183  0.34589179  0.11217609     0.39400
C1708       C  0.87414434  0.36819667  0.53105450     0.36300
C1709       C  0.92490747  0.36989767  0.98744932     0.35200
C1710       C  0.95377356  0.46363321  0.01256106     0.40300
N1711       N  0.93957477  0.33996133  0.12398237    -0.37800
N1712       N  0.97283493  0.39874492  0.06450972    -0.39400
N1713       N  0.82965894  0.32109817  0.58579921    -0.37100
N1714       N  0.86332532  0.37154524  0.51235153    -0.39500
N1715       N  0.92018245  0.42764350  0.08530170    -0.39300
N1716       N  0.95963818  0.48258963  0.01772559    -0.36900
N1717       N  0.95939168  0.40546937  0.91550651    -0.38000
N1718       N  0.91864823  0.35080995  0.98230735    -0.39600
C1719       C  0.07975192  0.50107988  0.71271343    -0.04600
C1720       C  0.10392305  0.50962082  0.71616591     0.09600
C1721       C  0.11633239  0.52191620  0.74406996    -0.01900
C1722       C  0.10453514  0.52517826  0.76869735    -0.00200
C1723       C  0.08027632  0.51653126  0.76536411    -0.03800
C1724       C  0.06800307  0.50462384  0.73713635     0.03200
C1725       C  0.11602475  0.50419091  0.69192614     0.10000
C1726       C  0.14120623  0.53079247  0.74772835     0.35900
C1727       C  0.04340429  0.49646518  0.73287986     0.39400
C1728       C  0.13276666  0.52199248  0.66834723    -0.04200
C1729       C  0.14719389  0.51816133  0.64955062     0.03000
C1730       C  0.14471977  0.49625880  0.65388370    -0.03800
C1731       C  0.12698501  0.47803443  0.67651026     0.00000
C1732       C  0.11263428  0.48194174  0.69511083    -0.02600
C1733       C  0.13596912  0.54476439  0.66474043     0.36700
C1734       C  0.12432394  0.45558933  0.68229759     0.40300
C1735       C  0.16617338  0.53781718  0.62857359     0.39400
C1736       C  0.09512786  0.46343069  0.71893275     0.36300
C1737       C  0.06697766  0.48848184  0.68409093     0.37000
C1738       C  0.11710805  0.53637881  0.79823300     0.40300
N1739       N  0.18131194  0.55403814  0.61241856    -0.37800
N1740       N  0.13855467  0.56294801  0.66196858    -0.39400
N1741       N  0.12226571  0.43774318  0.68723825    -0.37100
N1742       N  0.08112535  0.44870460  0.73791405    -0.39500
N1743       N  0.16106935  0.53793472  0.75049165    -0.39300
N1744       N  0.12711953  0.54519087  0.82186081    -0.36900
N1745       N  0.02380514  0.49006117  0.72947839    -0.38000
N1746       N  0.05681581  0.47835816  0.66126468    -0.39600
C1747       C  0.10584281  0.51825902  0.01800622    -0.04600
C1748       C  0.11659509  0.50744653  0.00726415     0.09600
C1749       C  0.11312107  0.50026151  0.97482117    -0.01900
C1750       C  0.09892824  0.50381986  0.95326192    -0.00200
C1751       C  0.08799209  0.51441989  0.96415088    -0.03800
C1752       C  0.09173888  0.52189632  0.99644047     0.03200
C1753       C  0.13107080  0.50315109  0.03064403     0.10000
C1754       C  0.12405109  0.48906718  0.96378298     0.35900
C1755       C  0.08074879  0.53301866  0.00762002     0.39400
C1756       C  0.11951735  0.48280934  0.05297064    -0.04200
C1757       C  0.13340975  0.48044096  0.57662116     0.03000
C1758       C  0.15757066  0.49743480  0.07988144    -0.03800
C1759       C  0.16935563  0.51711327  0.05609748     0.00000
C1760       C  0.15613495  0.51978210  0.03139296    -0.02600
C1761       C  0.09381628  0.46531504  0.05170857     0.36700
C1762       C  0.19479760  0.53530696  0.05762368     0.40300
C1763       C  0.12156361  0.45817425  0.59682650     0.39400
C1764       C  0.16818997  0.53995967  0.00708672     0.36300
C1765       C  0.10910437  0.52536447  0.05147168     0.37000
C1766       C  0.09624926  0.49734800  0.91952808     0.40300
N1767       N  0.11169166  0.43996613  0.61203452    -0.37800
N1768       N  0.07394443  0.45254234  0.55062570    -0.39400
N1769       N  0.21508860  0.55025883  0.05815553    -0.37100
N1770       N  0.17775348  0.55595018  0.98751056    -0.39500
N1771       N  0.13277915  0.48011660  0.95503896    -0.39300
N1772       N  0.09420406  0.49236515  0.89253054    -0.36900
N1773       N  0.07197305  0.54190997  0.01642471    -0.38000
N1774       N  0.11166654  0.53089189  0.07823865    -0.39600
C1775       C  0.11268429  0.66977384  0.64785940    -0.04600
C1776       C  0.12127388  0.66207984  0.67347116     0.09600
C1777       C  0.14601561  0.67331021  0.67643825    -0.01900
C1778       C  0.16223955  0.69378780  0.65597775    -0.00200
C1779       C  0.15373932  0.70300228  0.63221791    -0.03800
C1780       C  0.12885752  0.69047419  0.62752500     0.03200
C1781       C  0.10473105  0.64515443  0.70070843     0.10000
C1782       C  0.15476466  0.66464822  0.70197371     0.35900
C1783       C  0.11953004  0.70003763  0.60465193     0.39400
C1784       C  0.09574948  0.62085282  0.70200212    -0.04200
C1785       C  0.08184515  0.60557196  0.72946921     0.03000
C1786       C  0.07695524  0.61463301  0.75569759    -0.03800
C1787       C  0.08534081  0.63884271  0.75384307     0.00000
C1788       C  0.09917734  0.65405846  0.72633690    -0.02600
C1789       C  0.10118416  0.61176445  0.67530382     0.36700
C1790       C  0.08106680  0.64852190  0.78102133     0.40300
C1791       C  0.07243202  0.58046878  0.73064671     0.39400
C1792       C  0.10843420  0.67914504  0.72478810     0.36300
C1793       C  0.08709148  0.65716955  0.64401567     0.37000
C1794       C  0.18773900  0.70626305  0.66089790     0.40300
N1795       N  0.06485939  0.56043361  0.73155768    -0.37800
N1796       N  0.10556476  0.60455700  0.65398224    -0.39400
N1797       N  0.07779535  0.65635512  0.80268912    -0.37100
N1798       N  0.11586506  0.69915453  0.72336212    -0.39500
N1799       N  0.16176223  0.65773857  0.72229851    -0.39300
N1800       N  0.20806665  0.71626168  0.66481105    -0.36900
N1801       N  0.11110024  0.70732644  0.08651141    -0.38000
N1802       N  0.06665733  0.64700099  0.64105985    -0.39600
C1803       C  0.12882581  0.65898761  0.96521598    -0.04600
C1804       C  0.12068383  0.66171444  0.99478854     0.09600
C1805       C  0.09655587  0.64523260  0.00520469    -0.01900
C1806       C  0.08066454  0.62585495  0.98631904    -0.00200
C1807       C  0.08881959  0.62293790  0.95679896    -0.03800
C1808       C  0.11294385  0.63976099  0.94611423     0.03200
C1809       C  0.13753981  0.68203636  0.01508420     0.10000
C1810       C  0.08814280  0.64815140  0.03554082     0.35900
C1811       C  0.12134458  0.63793915  0.91488865     0.39400
C1812       C  0.13767947  0.70256102  0.01332339    -0.04200
C1813       C  0.15196639  0.72082811  0.03467719     0.03000
C1814       C  0.16628612  0.71865967  0.05797681    -0.03800
C1815       C  0.16752967  0.69890504  0.05756254     0.00000
C1816       C  0.15293740  0.68050142  0.03659847    -0.02600
C1817       C  0.12226742  0.70432878  0.99034140     0.36700
C1818       C  0.18430298  0.69767383  0.57819673     0.40300
C1819       C  0.15006527  0.74064077  0.03404072     0.39400
C1820       C  0.15315280  0.65954917  0.03784015     0.36300
C1821       C  0.15358637  0.67612269  0.95443249     0.37000
C1822       C  0.05610175  0.60852635  0.99785447     0.40300
N1823       N  0.14729803  0.75568716  0.03233614    -0.37800
N1824       N  0.10987837  0.70560630  0.97207758    -0.39400
N1825       N  0.19757907  0.69608873  0.59393535    -0.37100
N1826       N  0.15324184  0.64279476  0.03879011    -0.39500
N1827       N  0.08134442  0.65046979  0.05966177    -0.39300
N1828       N  0.03650903  0.59469005  0.00700807    -0.36900
N1829       N  0.12806820  0.63657153  0.88994493    -0.38000
N1830       N  0.17336515  0.68978354  0.94596669    -0.39600
C1831       C  0.80784125  0.22790036  0.49759539    -0.04600
C1832       C  0.80748241  0.24668358  0.50837193     0.09600
C1833       C  0.79429344  0.25368013  0.49098122    -0.01900
C1834       C  0.78120121  0.24183510  0.96445486    -0.00200
C1835       C  0.78141290  0.22307512  0.95311374    -0.03800
C1836       C  0.79582603  0.21681628  0.46892309     0.03200
C1837       C  0.82188701  0.25989704  0.53713931     0.10000
C1838       C  0.79514265  0.27367066  0.00268140     0.35900
C1839       C  0.79986767  0.20067166  0.45487132     0.39400
C1840       C  0.84753847  0.27485017  0.03504441    -0.04200
C1841       C  0.86070488  0.28703793  0.56199442     0.03000
C1842       C  0.84908622  0.28516802  0.59145104    -0.03800
C1843       C  0.82373925  0.27062139  0.59346110     0.00000
C1844       C  0.81027232  0.25744621  0.56683734    -0.02600
C1845       C  0.85948219  0.27824127  0.00401933     0.36700
C1846       C  0.81137516  0.26959862  0.62272118     0.40300
C1847       C  0.88694743  0.29977326  0.06043048     0.39400
C1848       C  0.78441967  0.24099239  0.57016360     0.36300
C1849       C  0.82072751  0.22008544  0.51593532     0.37000
C1850       C  0.76960556  0.25090266  0.94570950     0.40300
N1851       N  0.90745037  0.30971188  0.05806680    -0.37800
N1852       N  0.86898923  0.28090470  0.97927545    -0.39400
N1853       N  0.80154135  0.26895596  0.64593235    -0.37100
N1854       N  0.76381771  0.22778652  0.57280349    -0.39500
N1855       N  0.79574709  0.28964542  0.01126655    -0.39300
N1856       N  0.76112939  0.25901472  0.93081454    -0.36900
N1857       N  0.80354569  0.18816132  0.44347840    -0.38000
N1858       N  0.83094824  0.21381321  0.53063107    -0.39600
C1859       C  0.50303531  0.26875831  0.84297086    -0.04600
C1860       C  0.48500851  0.26406965  0.86516536     0.09600
C1861       C  0.47117592  0.24160187  0.88308740    -0.01900
C1862       C  0.47778856  0.22572394  0.88282048    -0.00200
C1863       C  0.49868690  0.23246620  0.86536386    -0.03800
C1864       C  0.50999501  0.25302161  0.84327107     0.03200
C1865       C  0.48413948  0.28397725  0.87602381     0.10000
C1866       C  0.45290546  0.23679719  0.40588370     0.35900
C1867       C  0.53029734  0.25915377  0.82337130     0.39400
C1868       C  0.46387655  0.28413298  0.87040399    -0.04200
C1869       C  0.45964957  0.29785629  0.88938442     0.03000
C1870       C  0.47584160  0.31169599  0.91387332    -0.03800
C1871       C  0.49698660  0.31281466  0.91765532     0.00000
C1872       C  0.50138600  0.29955861  0.89827690    -0.02600
C1873       C  0.44663597  0.26889787  0.84658043     0.36700
C1874       C  0.51351622  0.32629877  0.94333587     0.40300
C1875       C  0.43746243  0.29567123  0.88593080     0.39400
C1876       C  0.52299027  0.30066453  0.90303764     0.36300
C1877       C  0.51570413  0.29074997  0.82204719     0.37000
C1878       C  0.46597705  0.20472990  0.40546811     0.40300
N1879       N  0.41949538  0.29342481  0.88293058    -0.37800
N1880       N  0.43287400  0.25665745  0.82761049    -0.39400
N1881       N  0.52660239  0.33700295  0.96387602    -0.37100
N1882       N  0.54029430  0.30167678  0.90663796    -0.39500
N1883       N  0.43788462  0.23266659  0.42378696    -0.39300
N1884       N  0.45606297  0.18786869  0.42356244    -0.36900
N1885       N  0.54648166  0.26411354  0.80731323    -0.38000
N1886       N  0.52577529  0.30831208  0.80531218    -0.39600
C1887       C  0.64806475  0.12238685  0.51045918    -0.04600
C1888       C  0.66704528  0.14642878  0.51461073     0.09600
C1889       C  0.66711826  0.15742472  0.54255591    -0.01900
C1890       C  0.64834601  0.14446327  0.56628593    -0.00200
C1891       C  0.62964462  0.12020431  0.56257081    -0.03800
C1892       C  0.62954904  0.10923259  0.53454876     0.03200
C1893       C  0.68750340  0.15993555  0.49019000     0.10000
C1894       C  0.68683492  0.18198398  0.54717064     0.35900
C1895       C  0.61002190  0.08458982  0.53001281     0.39400
C1896       C  0.68988101  0.17777924  0.46778816    -0.04200
C1897       C  0.70928121  0.19047824  0.44489143     0.03000
C1898       C  0.72632299  0.18523785  0.44399622    -0.03800
C1899       C  0.72382830  0.16736860  0.46657256     0.00000
C1900       C  0.70460284  0.15487125  0.48961992    -0.02600
C1901       C  0.67204301  0.18271837  0.46795445     0.36700
C1902       C  0.73997052  0.16044548  0.46480814     0.40300
C1903       C  0.71155430  0.20957659  0.92301682     0.39400
C1904       C  0.70205124  0.13630475  0.51235728     0.36300
C1905       C  0.64764067  0.11122730  0.48132382     0.37000
C1906       C  0.64877942  0.15598507  0.59500560     0.40300
N1907       N  0.71252401  0.22428842  0.90600471    -0.37800
N1908       N  0.65780682  0.18663774  0.46814225    -0.39400
N1909       N  0.75191444  0.15372609  0.46381458    -0.37100
N1910       N  0.69986534  0.12134775  0.53029623    -0.39500
N1911       N  0.70258327  0.20157423  0.55073713    -0.39300
N1912       N  0.64914666  0.16526748  0.61781761    -0.36900
N1913       N  0.59442266  0.06495493  0.52636756    -0.38000
N1914       N  0.64739318  0.10235976  0.45810235    -0.39600
C1915       C  0.69118536  0.17733674  0.82917583    -0.04600
C1916       C  0.67655326  0.15219345  0.83304098     0.09600
C1917       C  0.68239106  0.14022834  0.85608143    -0.01900
C1918       C  0.70361160  0.15329551  0.87386515    -0.00200
C1919       C  0.71851493  0.17851264  0.86977093    -0.03800
C1920       C  0.71221743  0.19047113  0.84726695     0.03200
C1921       C  0.65701902  0.13825209  0.80953391     0.10000
C1922       C  0.66697241  0.11432951  0.86033397     0.35900
C1923       C  0.72793759  0.21628786  0.84160740     0.39400
C1924       C  0.66188594  0.13104696  0.78113301    -0.04200
C1925       C  0.64385734  0.11827333  0.75826899     0.03000
C1926       C  0.62072351  0.11242528  0.76390335    -0.03800
C1927       C  0.61576143  0.11923219  0.79272271     0.00000
C1928       C  0.63395423  0.13230140  0.81537805    -0.02600
C1929       C  0.68561829  0.13699368  0.77540271     0.36700
C1930       C  0.59171181  0.11201506  0.79966809     0.40300
C1931       C  0.64948256  0.11190576  0.72849774     0.39400
C1932       C  0.62901346  0.13959916  0.84474134     0.36300
C1933       C  0.68498186  0.18960486  0.80566595     0.37000
C1934       C  0.71113716  0.14048000  0.89334447     0.40300
N1935       N  0.65405189  0.10686991  0.70479257    -0.37800
N1936       N  0.70454543  0.14172013  0.77102377    -0.39400
N1937       N  0.57246789  0.10608031  0.80524892    -0.37100
N1938       N  0.62511287  0.14548584  0.86815142    -0.39500
N1939       N  0.65460029  0.09368118  0.86368005    -0.39300
N1940       N  0.71667327  0.12943783  0.90783523    -0.36900
N1941       N  0.74051741  0.23687471  0.83713352    -0.38000
N1942       N  0.67998413  0.19936639  0.78694558    -0.39600
C1943       C  0.50347332  0.14059639  0.43811954    -0.04600
C1944       C  0.52535923  0.14657862  0.45087254     0.09600
C1945       C  0.54671318  0.16864883  0.44077533    -0.01900
C1946       C  0.54582551  0.18608433  0.42206634    -0.00200
C1947       C  0.52350302  0.18137698  0.41317266    -0.03800
C1948       C  0.50168844  0.15760546  0.91970024     0.03200
C1949       C  0.52514818  0.13304885  0.48127487     0.10000
C1950       C  0.56940871  0.17416524  0.45230829     0.35900
C1951       C  0.47842853  0.15235610  0.91262927     0.39400
C1952       C  0.53092880  0.11655894  0.48028713    -0.04200
C1953       C  0.53191896  0.10521240  0.50988902     0.03000
C1954       C  0.52617183  0.10965903  0.54025926    -0.03800
C1955       C  0.51963527  0.12553813  0.54100669     0.00000
C1956       C  0.51961352  0.13757944  0.51174038    -0.02600
C1957       C  0.53554959  0.11116326  0.44887294     0.36700
C1958       C  0.51276729  0.12941996  0.57190356     0.40300
C1959       C  0.53894861  0.08909344  0.50916761     0.39400
C1960       C  0.51410301  0.15490342  0.51295559     0.36300
C1961       C  0.48177137  0.11706600  0.44665060     0.37000
C1962       C  0.56779522  0.20964614  0.41505961     0.40300
N1963       N  0.54472118  0.07635627  0.50859232    -0.37800
N1964       N  0.53904654  0.10676455  0.42372458    -0.39400
N1965       N  0.50700249  0.13243656  0.59637789    -0.37100
N1966       N  0.50977457  0.16876177  0.51375849    -0.39500
N1967       N  0.58749609  0.17852460  0.46150704    -0.39300
N1968       N  0.58552068  0.22840549  0.41017005    -0.36900
N1969       N  0.45936653  0.14725277  0.90814956    -0.38000
N1970       N  0.46451304  0.09827893  0.45348809    -0.39600
C1971       C  0.51166371  0.12890465  0.79933706    -0.04600
C1972       C  0.51245062  0.14811772  0.78294107     0.09600
C1973       C  0.51470352  0.15133175  0.74831111    -0.01900
C1974       C  0.51617672  0.13548893  0.73019741    -0.00200
C1975       C  0.51593286  0.11660817  0.74657356    -0.03800
C1976       C  0.51361363  0.11332948  0.78122136     0.03200
C1977       C  0.51219201  0.16567849  0.80235810     0.10000
C1978       C  0.51603989  0.17130714  0.73142648     0.35900
C1979       C  0.51389094  0.09431137  0.79826437     0.39400
C1980       C  0.53392025  0.18641390  0.81161960    -0.04200
C1981       C  0.53369847  0.20175539  0.83243639     0.03000
C1982       C  0.51193183  0.19575679  0.84586951    -0.03800
C1983       C  0.49031125  0.17693113  0.83314995     0.00000
C1984       C  0.49039461  0.16172655  0.81164396    -0.02600
C1985       C  0.55648158  0.19144605  0.80076282     0.36700
C1986       C  0.46815799  0.17355769  0.84148210     0.40300
C1987       C  0.55583067  0.22395906  0.84001600     0.39400
C1988       C  0.46810503  0.14170901  0.79964183     0.36300
C1989       C  0.50926502  0.12545844  0.83493276     0.37000
C1990       C  0.51806563  0.13868290  0.69463244     0.40300
N1991       N  0.57348008  0.24200368  0.84530168    -0.37800
N1992       N  0.57446353  0.19536308  0.79219460    -0.39400
N1993       N  0.45020805  0.17068725  0.84726593    -0.37100
N1994       N  0.45034365  0.12573668  0.78992940    -0.39500
N1995       N  0.51724962  0.18735484  0.71804766    -0.39300
N1996       N  0.51955132  0.14121229  0.66622667    -0.36900
N1997       N  0.51422080  0.07919550  0.81184694    -0.38000
N1998       N  0.50730451  0.12270205  0.86333002    -0.39600
C1999       C  0.25824487  0.83761789  0.95664900    -0.04600
C2000       C  0.25783765  0.83617069  0.99119211     0.09600
C2001       C  0.27399524  0.85669684  0.50773078    -0.01900
C2002       C  0.28884453  0.87919163  0.49038882    -0.00200
C2003       C  0.28929783  0.88082838  0.95577723    -0.03800
C2004       C  0.27449924  0.85964525  0.93895583     0.03200
C2005       C  0.23874710  0.81382854  0.01018320     0.10000
C2006       C  0.27458156  0.85457539  0.54341418     0.35900
C2007       C  0.27546041  0.86033661  0.90330883     0.39400
C2008       C  0.24048083  0.79457004  0.51524131    -0.04200
C2009       C  0.22426336  0.77507270  0.53737326     0.03000
C2010       C  0.20627720  0.77489705  0.05447660    -0.03800
C2011       C  0.20435955  0.79416222  0.04798148     0.00000
C2012       C  0.22006567  0.81314552  0.02517996    -0.02600
C2013       C  0.25992991  0.79556037  0.49989879     0.36700
C2014       C  0.18737856  0.79545997  0.06654076     0.40300
C2015       C  0.22798660  0.75671371  0.54563307     0.39400
C2016       C  0.21790967  0.83277969  0.01847282     0.36300
C2017       C  0.24129431  0.81655873  0.93938097     0.37000
C2018       C  0.30137095  0.90010294  0.50916103     0.40300
N2019       N  0.23187974  0.74267426  0.55184139    -0.37800
N2020       N  0.27547741  0.79641687  0.48765559    -0.39400
N2021       N  0.17393190  0.79659404  0.08136530    -0.37100
N2022       N  0.21635973  0.84853106  0.01316643    -0.39500
N2023       N  0.27508033  0.85282749  0.57181894    -0.39300
N2024       N  0.31031633  0.91577680  0.52610668    -0.36900
N2025       N  0.27596105  0.86077787  0.87488568    -0.38000
N2026       N  0.22767124  0.79975353  0.92570503    -0.39600
C2027       C  0.42527468  0.97838302  0.51248693    -0.04600
C2028       C  0.40485761  0.95589003  0.52420754     0.09600
C2029       C  0.40417224  0.94668508  0.55651044    -0.01900
C2030       C  0.42369502  0.96011686  0.57722786    -0.00200
C2031       C  0.44380634  0.98298007  0.56580217    -0.03800
C2032       C  0.44456942  0.99200719  0.53335611     0.03200
C2033       C  0.38321698  0.94335365  0.50349638     0.10000
C2034       C  0.38301933  0.92377850  0.56870840     0.35900
C2035       C  0.46527149  0.01532179  0.52140037     0.39400
C2036       C  0.37707364  0.92341179  0.48652069    -0.04200
C2037       C  0.35785570  0.91336134  0.46460924     0.03000
C2038       C  0.34540559  0.92375794  0.45889888    -0.03800
C2039       C  0.35126092  0.94329856  0.47654614     0.00000
C2040       C  0.36953585  0.95253931  0.49952086    -0.02600
C2041       C  0.39085981  0.91366632  0.49107504     0.36700
C2042       C  0.33800925  0.95360387  0.47128738     0.40300
C2043       C  0.35102917  0.89254190  0.44784952     0.39400
C2044       C  0.37437855  0.97161902  0.51906389     0.36300
C2045       C  0.42613362  0.98766335  0.47903956     0.37000
C2046       C  0.42256465  0.95083381  0.61074361     0.40300
N2047       N  0.34570862  0.87572167  0.43499945    -0.37800
N2048       N  0.40186823  0.90589131  0.49480299    -0.39400
N2049       N  0.32716081  0.96154089  0.46735730    -0.37100
N2050       N  0.37816639  0.98672320  0.53483189    -0.39500
N2051       N  0.36611059  0.90549684  0.57833576    -0.39300
N2052       N  0.42162341  0.94340679  0.63748313    -0.36900
N2053       N  0.48175613  0.03393984  0.51188291    -0.38000
N2054       N  0.42665357  0.99497578  0.45238059    -0.39600
C2055       C  0.39738302  0.97864601  0.87035298    -0.04600
C2056       C  0.40188549  0.96500192  0.85209609     0.09600
C2057       C  0.38540184  0.93997192  0.85335417    -0.01900
C2058       C  0.36349496  0.92877066  0.87058396    -0.00200
C2059       C  0.35831387  0.94253958  0.88739396    -0.03800
C2060       C  0.37534434  0.96749656  0.88742118     0.03200
C2061       C  0.42006578  0.97691353  0.82487645     0.10000
C2062       C  0.39036885  0.92601350  0.83484177     0.35900
C2063       C  0.36960412  0.98200437  0.90258212     0.39400
C2064       C  0.44286243  0.98169961  0.82854066    -0.04200
C2065       C  0.45850417  0.99019110  0.80093392     0.03000
C2066       C  0.45107921  0.99345983  0.76971394    -0.03800
C2067       C  0.42835751  0.98902449  0.76637289     0.00000
C2068       C  0.41309732  0.98118127  0.79399461    -0.02600
C2069       C  0.45013152  0.97797566  0.86063177     0.36700
C2070       C  0.42014648  0.99153324  0.73429061     0.40300
C2071       C  0.48242940  0.99629589  0.80482046     0.39400
C2072       C  0.38991256  0.97708134  0.79064346     0.36300
C2073       C  0.41499168  0.00429869  0.87005138     0.37000
C2074       C  0.34544640  0.90339685  0.86830983     0.40300
N2075       N  0.50158399  0.00131406  0.80785726    -0.37800
N2076       N  0.45597590  0.97508574  0.88627020    -0.39400
N2077       N  0.41351819  0.99342246  0.70873926    -0.37100
N2078       N  0.37147341  0.97389910  0.78824019    -0.39500
N2079       N  0.39444203  0.91501908  0.81998536    -0.39300
N2080       N  0.33111684  0.88320988  0.86593631    -0.36900
N2081       N  0.36531729  0.99407624  0.91390194    -0.38000
N2082       N  0.42912607  0.02474380  0.86999383    -0.39600
C2083       C  0.58338804  0.80900624  0.95864182    -0.04600
C2084       C  0.56450468  0.80554732  0.93935510     0.09600
C2085       C  0.54840709  0.78325221  0.92646159    -0.01900
C2086       C  0.55277578  0.76550560  0.92957309    -0.00200
C2087       C  0.57372747  0.77019986  0.94484158    -0.03800
C2088       C  0.58812166  0.79157935  0.96116614     0.03200
C2089       C  0.56305539  0.82623508  0.93081906     0.10000
C2090       C  0.52815624  0.77920559  0.90822543     0.35900
C2091       C  0.60923679  0.79694516  0.97818621     0.39400
C2092       C  0.57658377  0.84257430  0.90372863    -0.04200
C2093       C  0.58031867  0.86508252  0.90026105     0.03000
C2094       C  0.57033535  0.87125055  0.92365053    -0.03800
C2095       C  0.55430960  0.85345097  0.44830263     0.00000
C2096       C  0.55104096  0.83137042  0.95219102    -0.02600
C2097       C  0.58805197  0.83682316  0.88077788     0.36700
C2098       C  0.54337828  0.85900965  0.47252835     0.40300
C2099       C  0.59615779  0.88266873  0.87439567     0.39400
C2100       C  0.53662311  0.81406453  0.47897481     0.36300
C2101       C  0.59926154  0.83133741  0.47378022     0.37000
C2102       C  0.53666698  0.74343099  0.91414867     0.40300
N2103       N  0.60886417  0.89666817  0.85373344    -0.37800
N2104       N  0.59717125  0.83213562  0.86254221    -0.39400
N2105       N  0.53485721  0.86329188  0.49236902    -0.37100
N2106       N  0.52520376  0.80040348  0.50071285    -0.39500
N2107       N  0.51204754  0.77605351  0.89362085    -0.39300
N2108       N  0.52297911  0.72617655  0.90143024    -0.36900
N2109       N  0.62635296  0.80229009  0.99206471    -0.38000
N2110       N  0.61152754  0.84909136  0.48626022    -0.39600
C2111       C  0.55121343  0.99563916  0.49545414    -0.04600
C2112       C  0.56300844  0.98442647  0.49910397     0.09600
C2113       C  0.56957746  0.98055501  0.53068586    -0.01900
C2114       C  0.56484650  0.98831400  0.55836850    -0.00200
C2115       C  0.55302311  0.99946392  0.55479871    -0.03800
C2116       C  0.54575837  0.00272048  0.52346266     0.03200
C2117       C  0.56629323  0.97388614  0.47094534     0.10000
C2118       C  0.58064775  0.96793526  0.53481526     0.35900
C2119       C  0.53251815  0.01311377  0.52014569     0.39400
C2120       C  0.58950544  0.98403315  0.45840909    -0.04200
C2121       C  0.59475588  0.96947053  0.44420210     0.03000
C2122       C  0.57667016  0.94476606  0.44248231    -0.03800
C2123       C  0.55278973  0.93557755  0.45113114     0.00000
C2124       C  0.54757395  0.95040255  0.46436873    -0.02600
C2125       C  0.60836102  0.00881930  0.46332874     0.36700
C2126       C  0.53406029  0.91021532  0.45207814     0.40300
C2127       C  0.61924978  0.97945155  0.43468989     0.39400
C2128       C  0.52332305  0.94066152  0.47515139     0.36300
C2129       C  0.54472908  0.99976778  0.46297789     0.37000
C2130       C  0.57144409  0.98411929  0.59078230     0.40300
N2131       N  0.63896016  0.98774020  0.42756756    -0.37800
N2132       N  0.62335568  0.02858668  0.46737707    -0.39400
N2133       N  0.51842757  0.89013733  0.45430543    -0.37100
N2134       N  0.50401468  0.93294944  0.48373933    -0.39500
N2135       N  0.58939729  0.95781020  0.53801443    -0.39300
N2136       N  0.57659874  0.98076404  0.61668693    -0.36900
N2137       N  0.52168070  0.02112180  0.51753237    -0.38000
N2138       N  0.53967094  0.00310977  0.43698900    -0.39600
C2139       C  0.54931878  0.94480396  0.77460238    -0.04600
C2140       C  0.55296244  0.94918265  0.80828660     0.09600
C2141       C  0.55364335  0.96849483  0.81949789    -0.01900
C2142       C  0.55186271  0.98395383  0.79705326    -0.00200
C2143       C  0.54835446  0.97968893  0.76336270    -0.03800
C2144       C  0.54667470  0.95979432  0.75229030     0.03200
C2145       C  0.55861300  0.93526781  0.83164271     0.10000
C2146       C  0.55636155  0.97252187  0.85426725     0.35900
C2147       C  0.54309689  0.95526558  0.71770875     0.39400
C2148       C  0.58268689  0.94494345  0.83867820    -0.04200
C2149       C  0.58823473  0.93468239  0.86502458     0.03000
C2150       C  0.56982734  0.91471886  0.88465512    -0.03800
C2151       C  0.54612437  0.90273930  0.87402415     0.00000
C2152       C  0.54032858  0.91344431  0.84838568    -0.02600
C2153       C  0.60170472  0.96618379  0.81977204     0.36700
C2154       C  0.52802574  0.87923312  0.88882956     0.40300
C2155       C  0.61277626  0.94481154  0.37276808     0.39400
C2156       C  0.51557927  0.90273115  0.84040986     0.36300
C2157       C  0.54893703  0.92524938  0.76283314     0.37000
C2158       C  0.55388641  0.00444906  0.80860360     0.40300
N2159       N  0.63253188  0.95278178  0.37853580    -0.37800
N2160       N  0.61678274  0.98313324  0.80458346    -0.39400
N2161       N  0.51358602  0.86017455  0.90007511    -0.37100
N2162       N  0.49579538  0.89427992  0.83417167    -0.39500
N2163       N  0.55838214  0.97559827  0.88204270    -0.39300
N2164       N  0.55569206  0.02091508  0.81776282    -0.36900
N2165       N  0.54025075  0.95169046  0.69009746    -0.38000
N2166       N  0.54869589  0.90966358  0.75346328    -0.39600
loop_ 
_geom_bond_atom_site_label_1 
_geom_bond_atom_site_label_2 
_geom_bond_distance 
_geom_bond_site_symmetry_2 
_ccdc_geom_bond_type 
N1            C2   1.364       .  A
N1         C1088   1.360       .  A
N1         C1067   1.451       .  S
C2         C1011   1.491       .  S
C2         C1086   1.385       .  A
C3            C4   1.367       .  A
C3         C1085   1.385       .  A
C3            H6   1.083       .  S
C4            C5   1.377       .  A
C4            H7   1.082       .  S
C5         N1084   1.360       .  A
C5         C1039   1.487       .  S
N8           C12   1.351       .  A
N8            C9   1.356       .  A
N8         C2038   1.440       .  S
C9          C920   1.492       .  S
C9           C10   1.389       .  A
C10          C11   1.376       .  A
C10          H13   1.082       .  S
C11          C12   1.377       .  A
C11          H14   1.082       .  S
C12         C976   1.478       .  S
C15          N33   1.349       .  A
C15          C52   1.464   1_565  S
C15        C1060   1.491       .  S
N16          N33   1.327   1_545  A
N16          N38   1.318       .  A
N16         Co53   2.082       .  S
C17          N42   1.338       .  A
C17          C55   1.453       .  S
C17          H62   1.082       .  S
H18          C59   1.082       .  S
C19          N43   1.345       .  A
C19          C23   1.463       .  S
C19          H48   1.082       .  S
Co20         N38   2.098       .  S
Co20         N28   2.080       .  S
Co20         N60   2.078       .  S
Co20         N36   2.093       .  S
Co20        Cl64   2.449       .  S
N21          C59   1.341       .  A
N21          N28   1.323       .  A
N21         Co22   2.094       .  S
Co22         N25   2.079       .  S
Co22         N42   2.065       .  S
Co22         N29   2.097       .  S
Co22        Cl64   2.450       .  S
C23          N61   1.350       .  A
C23         C892   1.488       .  S
N24          N31   1.323       .  A
N24          N54   1.318       .  A
N24         Co57   2.071       .  S
N25          N43   1.317       .  A
N25          N61   1.326       .  A
N26          C55   1.352       .  A
N26          N36   1.326       .  A
H27          C52   1.082       .  S
N28          N49   1.322       .  A
N29          N47   1.321       .  A
N29          N34   1.326       .  A
C30          N34   1.350       .  A
C30          C58   1.455       .  S
C30         C871   1.477       .  S
N31          C46   1.343   1_545  A
N31         Co53   2.091       .  S
C32          N60   1.337       .  A
C32          C35   1.452       .  S
C32          H66   1.081       .  S
C35          N56   1.349   1_545  A
C35        C1032   1.471   1_545  S
N36          N42   1.318       .  A
N37          C63   1.338   1_545  A
N37          N39   1.317       .  A
N37         Co53   2.068       .  S
N38          C52   1.346       .  A
N39          N67   1.326       .  A
N39         Co57   2.089       .  S
H40          C63   1.082       .  S
H41          C58   1.081       .  S
N43         Co57   2.095       .  S
N44          N56   1.326   1_545  A
N44          N60   1.322       .  A
N44         Co53   2.088       .  S
C45          N49   1.348       .  A
C45          C59   1.461       .  S
C45         C843   1.481       .  S
C46          C65   1.461   1_565  S
C46          H50   1.081       .  S
N47          C58   1.341       .  A
N47         Co57   2.081       .  S
C51          N67   1.352   1_565  A
C51          C63   1.453       .  S
C51         C948   1.480       .  S
Co53        Cl64   2.452       .  S
N54          C65   1.343       .  A
C55         C808   1.482       .  S
Co57        Cl64   2.450       .  S
C65         C983   1.473   1_545  S
N68          C72   1.362       .  A
N68          C69   1.364       .  A
N68         C899   1.449       .  S
C69         C780   1.489       .  S
C69          C70   1.385       .  A
C70        C1154   1.366       .  A
C70          H73   1.083       .  S
C71        C1153   1.366       .  A
C71        C1155   1.377       .  A
C71          H74   1.082       .  S
C72        C1947   1.490       .  S
C72        C1154   1.377       .  A
N75          C79   1.356       .  A
N75          C76   1.359       .  A
N75        C1898   1.448       .  S
C76         C752   1.487       .  S
C76          C77   1.382       .  A
C77          C78   1.375       .  A
C77          H80   1.082       .  S
C78          C79   1.382       .  A
C78          H81   1.082       .  S
C79         C836   1.485       .  S
C82         N100   1.352       .  A
C82         C119   1.457       .  S
C82         C668   1.484       .  S
N83         N100   1.326       .  A
N83         N105   1.320       .  A
N83        Co120   2.095       .  S
C84         N109   1.342       .  A
C84         C122   1.460       .  S
C84         H129   1.083       .  S
H85         C126   1.082       .  S
C86         N110   1.342       .  A
C86          C90   1.461       .  S
C86         H115   1.082       .  S
Co87        N105   2.081       .  S
Co87         N95   2.077       .  S
Co87        N127   2.083       .  S
Co87        N103   2.072       .  S
Co87       Cl131   2.442       .  S
N88         C126   1.340       .  A
N88          N95   1.320       .  A
N88         Co89   2.082       .  S
Co89         N92   2.097   1_455  S
Co89        N109   2.086       .  S
Co89         N96   2.084   1_455  S
Co89       Cl131   2.461       .  S
C90         N128   1.353       .  A
C90         C556   1.488       .  S
N91          N98   1.321       .  A
N91         N121   1.324       .  A
N91        Co124   2.084       .  S
N92         N110   1.320       .  A
N92         N128   1.327       .  A
N93         C122   1.345       .  A
N93         N103   1.321       .  A
H94         C119   1.081       .  S
N95         N116   1.322       .  A
N96         N114   1.319       .  A
N96         N101   1.326       .  A
C97         N101   1.350       .  A
C97         C125   1.457       .  S
C97         C528   1.482       .  S
N98         C113   1.341       .  A
N98        Co120   2.092   1_655  S
C99         N127   1.341       .  A
C99         C102   1.459       .  S
C99         H133   1.081       .  S
C102        N123   1.353       .  A
C102        C640   1.490       .  S
N103        N109   1.320       .  A
N104        C130   1.339       .  A
N104        N106   1.320       .  A
N104       Co120   2.082   1_655  S
N105        C119   1.340       .  A
N106        N134   1.325       .  A
N106       Co124   2.084       .  S
H107        C130   1.082       .  S
H108        C125   1.082       .  S
N110       Co124   2.091       .  S
N111        N123   1.327       .  A
N111        N127   1.318       .  A
N111       Co120   2.093       .  S
C112        N116   1.348       .  A
C112        C126   1.461       .  S
C112        C724   1.482       .  S
C113        C132   1.462       .  S
C113        H117   1.082   1_655  S
N114        C125   1.339       .  A
N114       Co124   2.082       .  S
C118        N134   1.348       .  A
C118        C130   1.456       .  S
C118        C591   1.473       .  S
Co120      Cl131   2.459       .  S
N121        C132   1.349       .  A
C122        C703   1.476       .  S
Co124      Cl131   2.446   1_655  S
C132        C612   1.486       .  S
N135        C139   1.369       .  A
N135        C136   1.370       .  A
N135       C1758   1.455       .  S
C136        C500   1.500       .  S
C136        C137   1.383       .  A
C137        C138   1.365       .  A
C137        H140   1.083       .  S
C138        C139   1.380       .  A
C138        H141   1.082       .  S
C139        C647   1.502       .  S
N142        C146   1.361       .  A
N142        C143   1.362       .  A
N142        C619   1.452       .  S
C143        C759   1.490       .  S
C143        C144   1.384       .  A
C144        C145   1.371       .  A
C144        H147   1.082       .  S
C145        C146   1.379       .  A
C145        H148   1.082       .  S
C146        C584   1.487       .  S
N149        C153   1.360       .  A
N149        C150   1.364       .  A
N149       C1646   1.447       .  S
C150        C472   1.496       .  S
C150        C151   1.386       .  A
C151        C152   1.370       .  A
C151        H154   1.082       .  S
C152        C153   1.376       .  A
C152        H155   1.082       .  S
C153        C535   1.488       .  S
N156        C157   1.361       .  A
N156       C1243   1.360       .  A
N156        C731   1.450       .  S
C157        C927   1.482       .  S
C157       C1241   1.382       .  A
C158        C159   1.367       .  A
C158       C1240   1.382       .  A
C158        H161   1.082       .  S
C159        C160   1.380       .  A
C159        H162   1.082       .  S
C160       N1239   1.360       .  A
C160        C696   1.484       .  S
C163        N181   1.357       .  A
C163        C200   1.454       .  S
C163        C388   1.488       .  S
N164        N181   1.330       .  A
N164        N186   1.320       .  A
N164       Co201   2.104       .  S
C165        N190   1.344       .  A
C165        C203   1.461       .  S
C165        H210   1.081       .  S
H166        C207   1.082       .  S
C167        N191   1.341       .  A
C167        C171   1.456       .  S
C167        H196   1.082       .  S
Co168       N186   2.078       .  S
Co168       N176   2.081       .  S
Co168       N208   2.087       .  S
Co168       N184   2.080       .  S
Co168      Cl212   2.439       .  S
N169        C207   1.349       .  A
N169        N176   1.321       .  A
N169       Co170   2.112       .  S
Co170       N173   2.094       .  S
Co170       N190   2.091       .  S
Co170       N177   2.100       .  S
Co170      Cl212   2.469       .  S
C171        N209   1.351       .  A
C171        C276   1.484       .  S
N172        N179   1.322       .  A
N172        N202   1.323       .  A
N172       Co205   2.085       .  S
N173        N191   1.321       .  A
N173        N209   1.327       .  A
N174        C203   1.348       .  A
N174        N184   1.324       .  A
H175        C200   1.082       .  S
N176        N197   1.323       .  A
N177        N195   1.321       .  A
N177        N182   1.328       .  A
C178        N182   1.353       .  A
C178        C206   1.458       .  S
C178        C248   1.488       .  S
N179        C194   1.349       .  A
N179       Co201   2.113       .  S
C180        N208   1.342       .  A
C180        C183   1.456       .  S
C180        H214   1.081       .  S
C183        N204   1.351       .  A
C183        C360   1.484       .  S
N184        N190   1.319       .  A
N185        C211   1.341       .  A
N185        N187   1.320       .  A
N185       Co201   2.086       .  S
N186        C200   1.337       .  A
N187        N215   1.325       .  A
N187       Co205   2.088       .  S
H188        C211   1.082       .  S
H189        C206   1.082       .  S
N191       Co205   2.087       .  S
N192        N204   1.328       .  A
N192        N208   1.321       .  A
N192       Co201   2.098       .  S
C193        N197   1.348       .  A
C193        C207   1.470       .  S
C193        C451   1.496       .  S
C194        C213   1.472       .  S
C194        H198   1.082       .  S
N195        C206   1.340       .  A
N195       Co205   2.086       .  S
C199        N215   1.351       .  A
C199        C211   1.460       .  S
C199        C311   1.489       .  S
Co201      Cl212   2.472       .  S
N202        C213   1.347       .  A
C203        C416   1.481       .  S
Co205      Cl212   2.443       .  S
C213        C339   1.498       .  S
N216        C220   1.368       .  A
N216        C217   1.364       .  A
N216        C423   1.448       .  S
C217        C787   1.496       .  S
C217        C218   1.382       .  A
C218        C219   1.372       .  A
C218        H221   1.082       .  S
C219        C220   1.382       .  A
C219       H1305   1.082       .  S
C220        C444   1.505       .  S
H222       C1302   1.082   1_554  S
N223        C227   1.367       .  A
N223        C224   1.368       .  A
N223        C283   1.453       .  S
C224        C507   1.496       .  S
C224        C225   1.382       .  A
C225        C226   1.368       .  A
C225        H228   1.082       .  S
C226        C227   1.380       .  A
C226        H229   1.082       .  S
C227        C255   1.496       .  S
N230        C234   1.366       .  A
N230        C231   1.368       .  A
N230        C395   1.453       .  S
C231        C479   1.497       .  S
C231        C232   1.384       .  A
C232        C233   1.365       .  A
C232        H235   1.083       .  S
C233        C234   1.378       .  A
C233        H236   1.082       .  S
C234        C367   1.492       .  S
N237        C241   1.362       .  A
N237        C238   1.372       .  A
N237        C332   1.457       .  S
C238       C1004   1.499       .  S
C238        C239   1.383       .  A
C239        C240   1.365       .  A
C239        H242   1.083       .  S
C240        C241   1.377       .  A
C240        H243   1.082       .  S
C241        C304   1.486       .  S
C244        C245   1.410       .  A
C244        C249   1.413       .  A
C244        C262   1.450       .  S
C245        C250   1.501       .  S
C245        C246   1.414       .  A
C246        C247   1.412       .  A
C246        C251   1.451       .  S
C247        C248   1.413       .  A
C247        C263   1.450       .  S
C248        C249   1.412       .  A
C249        C252   1.446       .  S
C250        C253   1.411       .  A
C250        C257   1.409       .  A
C251        N268   1.157       .  T
C252        N270   1.155       .  T
C253        C254   1.414       .  A
C253        C258   1.451       .  S
C254        C255   1.415       .  A
C254        C260   1.448       .  S
C255        C256   1.419       .  A
C256        C257   1.412       .  A
C256        C259   1.451       .  S
C257        C261   1.451       .  S
C258        N265   1.157       .  T
C259        N266   1.157       .  T
C260        N264   1.157       .  T
C261        N267   1.157       .  T
C262        N271   1.157       .  T
C263        N269   1.157       .  T
C272        C273   1.412       .  A
C272        C277   1.414       .  A
C272        C290   1.450       .  S
C273        C278   1.501       .  S
C273        C274   1.413       .  A
C274        C275   1.412       .  A
C274        C279   1.450       .  S
C275        C276   1.410       .  A
C275        C291   1.451       .  S
C276        C277   1.413       .  A
C277        C280   1.450       .  S
C278        C281   1.410       .  A
C278        C285   1.408       .  A
C279       N1379   1.157   1_554  T
C280        N298   1.157       .  T
C281        C282   1.416   1_554  A
C281        C286   1.450       .  S
C282       C1366   1.415       .  A
C282        C288   1.445       .  S
C283        C284   1.415       .  A
C283       C1365   1.415       .  A
C284       C1368   1.411       .  A
C284        C287   1.446       .  S
C285       C1367   1.411   1_554  A
C285        C289   1.451       .  S
C286        N293   1.157       .  T
C287        N294   1.157       .  T
C288       N1375   1.157       .  T
C289        N295   1.157       .  T
C290        N299   1.157       .  T
C291        N297   1.157       .  T
N292       C1371   1.157       .  T
N296       C1362   1.157       .  T
C300        C301   1.409       .  A
C300        C305   1.406       .  A
C300        C318   1.452       .  S
C301        C306   1.494       .  S
C301        C302   1.410       .  A
C302        C303   1.414       .  A
C302        C307   1.449       .  S
C303        C304   1.413       .  A
C303        C319   1.448       .  S
C304        C305   1.415       .  A
C305        C308   1.452       .  S
C306        C309   1.410       .  A
C306        C313   1.409       .  A
C307        N324   1.157       .  T
C308        N326   1.157       .  T
C309        C310   1.410       .  A
C309        C314   1.452       .  S
C310        C311   1.417       .  A
C310        C316   1.451       .  S
C311        C312   1.416       .  A
C312        C313   1.411       .  A
C312        C315   1.451       .  S
C313        C317   1.450       .  S
C314        N321   1.157       .  T
C315        N322   1.157       .  T
C316        N320   1.157       .  T
C317        N323   1.157       .  T
C318        N327   1.157       .  T
C319        N325   1.157       .  T
C328        C329   1.408       .  A
C328       C1416   1.414   1_554  A
C328        C346   1.451       .  S
C329        C334   1.508       .  S
C329       C1413   1.411   1_554  A
C330        C331   1.419       .  A
C330       C1412   1.411       .  A
C330        C335   1.450       .  S
C331        C332   1.417       .  A
C331        C347   1.446       .  S
C332        C333   1.419       .  A
C333       C1411   1.414       .  A
C333        C336   1.447       .  S
C334        C337   1.410       .  A
C334        C341   1.414       .  A
C335        N352   1.157       .  T
C336        N354   1.157       .  T
C337        C338   1.415       .  A
C337        C342   1.450       .  S
C338        C339   1.418       .  A
C338        C344   1.451       .  S
C339        C340   1.413       .  A
C340        C341   1.416       .  A
C340        C343   1.448       .  S
C341        C345   1.449       .  S
C342        N349   1.157       .  T
C343        N350   1.156       .  T
C344        N348   1.157       .  T
C345       N1434   1.157   1_554  T
C346        N355   1.157       .  T
C347        N353   1.157       .  T
N351       C1428   1.157       .  T
C356        C357   1.409       .  A
C356        C361   1.413       .  A
C356        C374   1.450       .  S
C357        C362   1.497       .  S
C357        C358   1.413       .  A
C358        C359   1.411       .  A
C358        C363   1.451       .  S
C359        C360   1.410       .  A
C359        C375   1.450       .  S
C360        C361   1.413       .  A
C361        C364   1.447       .  S
C362        C365   1.408       .  A
C362        C369   1.410       .  A
C363        N380   1.157       .  T
C364        N382   1.156       .  T
C365        C366   1.409       .  A
C365        C370   1.451       .  S
C366        C367   1.418       .  A
C366        C372   1.452       .  S
C367        C368   1.414       .  A
C368        C369   1.413       .  A
C368        C371   1.449       .  S
C369        C373   1.450       .  S
C370        N377   1.157       .  T
C371        N378   1.157       .  T
C372        N376   1.157       .  T
C373        N379   1.157       .  T
C374        N383   1.157       .  T
C375        N381   1.157       .  T
C384        C385   1.412       .  A
C384        C389   1.413       .  A
C384        C402   1.450       .  S
C385        C390   1.503       .  S
C385        C386   1.413       .  A
C386        C387   1.414       .  A
C386        C391   1.451       .  S
C387        C388   1.412       .  A
C387        C403   1.449       .  S
C388        C389   1.415       .  A
C389        C392   1.451       .  S
C390        C393   1.409       .  A
C390        C397   1.411       .  A
C391       N1491   1.157   1_554  T
C392        N410   1.157       .  T
C393       C1477   1.411   1_554  A
C393        C398   1.451       .  S
C394        C395   1.416       .  A
C394       C1476   1.411       .  A
C394        C400   1.447       .  S
C395       C1479   1.414       .  A
C396        C397   1.416       .  A
C396       C1478   1.414   1_554  A
C396        C399   1.446       .  S
C397        C401   1.450       .  S
C398       N1488   1.157       .  T
C399        N406   1.157   1_554  T
C400        N404   1.157       .  T
C401        N407   1.157       .  T
C402        N411   1.157       .  T
C403        N409   1.157       .  T
N405       C1481   1.157       .  T
N408       C1474   1.157       .  T
C412        C413   1.411       .  A
C412        C417   1.413       .  A
C412        C430   1.449       .  S
C413        C418   1.493       .  S
C413        C414   1.410       .  A
C414        C415   1.408       .  A
C414        C419   1.453       .  S
C415        C416   1.410       .  A
C415        C431   1.446       .  S
C416        C417   1.413       .  A
C417        C420   1.450       .  S
C418        C421   1.409       .  A
C418        C425   1.407       .  A
C419        N436   1.157       .  T
C420        N438   1.157       .  T
C421        C422   1.411       .  A
C421        C426   1.451       .  S
C422        C423   1.415       .  A
C422        C428   1.445       .  S
C423        C424   1.414       .  A
C424        C425   1.410       .  A
C424        C427   1.447       .  S
C425        C429   1.450       .  S
C426        N433   1.157       .  T
C427        N434   1.157       .  T
C428        N432   1.157       .  T
C429        N435   1.157       .  T
C430        N439   1.157       .  T
C431        N437   1.155       .  T
C440        C441   1.410   1_556  A
C440       C1528   1.416       .  A
C440        C458   1.451       .  S
C441        C446   1.506       .  S
C441        C442   1.409       .  A
C442        C443   1.415       .  A
C442        C447   1.451       .  S
C443       C1527   1.421   1_554  A
C443        C459   1.451       .  S
C444        C445   1.417       .  A
C444       C1526   1.421       .  A
C445       C1523   1.416       .  A
C445        C448   1.446       .  S
C446        C449   1.412       .  A
C446        C453   1.412       .  A
C447        N464   1.157       .  T
C448        N466   1.156       .  T
C449        C450   1.418       .  A
C449        C454   1.449       .  S
C450        C451   1.415       .  A
C450        C456   1.450       .  S
C451        C452   1.417       .  A
C452        C453   1.412       .  A
C452        C455   1.452       .  S
C453        C457   1.451       .  S
C454        N461   1.157   1_554  T
C455        N462   1.157       .  T
C456        N460   1.157       .  T
C457        N463   1.157       .  T
C458       N1550   1.157       .  T
C459        N465   1.157       .  T
N467       C1541   1.157       .  T
C468        C469   1.413       .  A
C468        C473   1.415       .  A
C468        C486   1.451       .  S
C469        C474   1.502       .  S
C469       C1553   1.406       .  A
C470        C471   1.412       .  A
C470       C1552   1.406       .  A
C470        C475   1.451       .  S
C471        C472   1.421       .  A
C471        C487   1.451       .  S
C472       C1556   1.413       .  A
C473       C1555   1.413       .  A
C473        C476   1.447       .  S
C474        C477   1.412       .  A
C474        C481   1.407       .  A
C475        N492   1.157       .  T
C476        N494   1.157       .  T
C477        C478   1.416       .  A
C477       C1565   1.451       .  S
C478        C479   1.414       .  A
C478       C1567   1.446       .  S
C479        C480   1.421       .  A
C480        C481   1.411       .  A
C480        C483   1.452       .  S
C481        C485   1.451       .  S
C482       C1560   1.451       .  S
C482        N489   1.157       .  T
C483        N490   1.157       .  T
C484       C1561   1.446       .  S
C484        N488   1.157       .  T
C485        N491   1.157       .  T
C486        N495   1.157       .  T
C487        N493   1.157       .  T
C496        C497   1.415       .  A
C496        C501   1.418       .  A
C496        C514   1.450       .  S
C497        C502   1.505       .  S
C497       C1581   1.407       .  A
C498        C499   1.410       .  A
C498       C1580   1.407       .  A
C498        C503   1.451       .  S
C499        C500   1.421       .  A
C499        C515   1.453       .  S
C500       C1584   1.413       .  A
C501       C1583   1.413       .  A
C501        C504   1.448       .  S
C502        C505   1.409       .  A
C502       C1592   1.413       .  A
C503        N520   1.157       .  T
C504        N522   1.157       .  T
C505        C506   1.412       .  A
C505        C510   1.451       .  S
C506        C507   1.420       .  A
C506        C512   1.452       .  S
C507       C1591   1.414       .  A
C508        C509   1.416       .  A
C508       C1590   1.414   1_554  A
C508        C511   1.447       .  S
C509       C1585   1.413       .  A
C509        C513   1.450       .  S
C510        N517   1.157       .  T
C511        N518   1.157       .  T
C512        N516   1.157       .  T
C513        N519   1.157       .  T
C514        N523   1.157       .  T
C515        N521   1.157       .  T
C524        C525   1.409       .  A
C524        C529   1.413       .  A
C524        C542   1.449       .  S
C525        C530   1.494       .  S
C525        C526   1.412       .  A
C526        C527   1.407       .  A
C526        C531   1.453       .  S
C527        C528   1.412       .  A
C527        C543   1.451       .  S
C528        C529   1.415       .  A
C529        C532   1.451       .  S
C530        C533   1.408       .  A
C530        C537   1.407       .  A
C531        N548   1.157       .  T
C532        N550   1.157   1_655  T
C533        C534   1.409       .  A
C533        C538   1.452       .  S
C534        C535   1.414       .  A
C534        C540   1.448       .  S
C535        C536   1.416       .  A
C536        C537   1.411       .  A
C536        C539   1.448       .  S
C537        C541   1.451       .  S
C538        N545   1.157       .  T
C539        N546   1.157       .  T
C540        N544   1.157       .  T
C541        N547   1.157       .  T
C542        N551   1.157       .  T
C543        N549   1.157       .  T
C552        C553   1.412       .  A
C552        C557   1.414       .  A
C552        C570   1.450       .  S
C553        C558   1.503       .  S
C553        C554   1.413       .  A
C554        C555   1.414       .  A
C554        C559   1.451       .  S
C555        C556   1.411       .  A
C555        C571   1.450       .  S
C556        C557   1.413       .  A
C557        C560   1.450       .  S
C558        C561   1.410       .  A
C558        C565   1.414       .  A
C559        N576   1.157       .  T
C560        N578   1.157       .  T
C561        C562   1.409       .  A
C561        C566   1.451       .  S
C562        C563   1.413       .  A
C562        C568   1.448       .  S
C563       N1232   1.447       .  S
C563       C1647   1.409       .  A
C564       C1646   1.409       .  A
C564       C1648   1.417       .  A
C564        C567   1.445       .  S
C565       C1647   1.417       .  A
C565        C569   1.449       .  S
C566        N573   1.157       .  T
C567        N574   1.157       .  T
C568        N572   1.157       .  T
C569       N1658   1.157       .  T
C570        N579   1.157       .  T
C571        N577   1.157       .  T
N575       C1652   1.157       .  T
C580        C581   1.409       .  A
C580        C585   1.408       .  A
C580        C598   1.452       .  S
C581        C586   1.492       .  S
C581        C582   1.408       .  A
C582        C583   1.411       .  A
C582        C587   1.451       .  S
C583        C584   1.415       .  A
C583        C599   1.449       .  S
C584        C585   1.415       .  A
C585        C588   1.450       .  S
C586        C589   1.411       .  A
C586        C593   1.412       .  A
C587        N604   1.157       .  T
C588        N606   1.157       .  T
C589        C590   1.409       .  A
C589        C594   1.450       .  S
C590        C591   1.409       .  A
C590        C596   1.450       .  S
C591        C592   1.410       .  A
C592        C593   1.408       .  A
C592        C595   1.451       .  S
C593        C597   1.450       .  S
C594        N601   1.157       .  T
C595        N602   1.157       .  T
C596        N600   1.157       .  T
C597        N603   1.157       .  T
C598        N607   1.157       .  T
C599        N605   1.157       .  T
C608        C609   1.411       .  A
C608        C613   1.411       .  A
C608        C626   1.451       .  S
C609        C614   1.498       .  S
C609        C610   1.411       .  A
C610        C611   1.412       .  A
C610        C615   1.450       .  S
C611        C612   1.413       .  A
C611        C627   1.451       .  S
C612        C613   1.415       .  A
C613        C616   1.450       .  S
C614        C617   1.407       .  A
C614        C621   1.410       .  A
C615        N632   1.157       .  T
C616        N634   1.157       .  T
C617        C618   1.408       .  A
C617        C622   1.452       .  S
C618       C1702   1.415       .  A
C618        C624   1.446       .  S
C619        C620   1.416       .  A
C619       C1701   1.415       .  A
C620       C1704   1.416       .  A
C620        C623   1.446       .  S
C621       C1703   1.415       .  A
C621       C1708   1.450       .  S
C622        N629   1.157       .  T
C623        N630   1.157       .  T
C624        N628   1.157       .  T
C625       C1704   1.450       .  S
C625        N631   1.157       .  T
C626        N635   1.157       .  T
C627        N633   1.157       .  T
C636        C637   1.411       .  A
C636        C641   1.414       .  A
C636        C654   1.450       .  S
C637        C642   1.503       .  S
C637        C638   1.413       .  A
C638        C639   1.412       .  A
C638        C643   1.451       .  S
C639        C640   1.415       .  A
C639        C655   1.451       .  S
C640        C641   1.414       .  A
C641        C644   1.450       .  S
C642        C645   1.411       .  A
C642        C649   1.409       .  A
C643        N660   1.157       .  T
C644        N662   1.157       .  T
C645        C646   1.416       .  A
C645        C650   1.451       .  S
C646        C647   1.417       .  A
C646        C652   1.448       .  S
C647        C648   1.420       .  A
C648        C649   1.411       .  A
C648        C651   1.452       .  S
C649        C653   1.452       .  S
C650        N657   1.157       .  T
C651        N658   1.157       .  T
C652        N656   1.157       .  T
C653        N659   1.157       .  T
C654        N663   1.157       .  T
C655        N661   1.157       .  T
C664        C665   1.413       .  A
C664        C669   1.412       .  A
C664        C682   1.451       .  S
C665        C670   1.500       .  S
C665        C666   1.412       .  A
C666        C667   1.413       .  A
C666        C671   1.450       .  S
C667        C668   1.413       .  A
C667        C683   1.451       .  S
C668        C669   1.411       .  A
C669        C672   1.451       .  S
C670        C673   1.407       .  A
C670        C677   1.411       .  A
C671        N688   1.157       .  T
C672        N690   1.157       .  T
C673       C1757   1.410       .  A
C673        C678   1.451       .  S
C674       C1756   1.410       .  A
C674       C1758   1.417       .  A
C674        C680   1.447       .  S
C675       N1218   1.455       .  S
C675        C676   1.416       .  A
C675       C1757   1.417       .  A
C676        C677   1.416       .  A
C676        C679   1.446       .  S
C677        C681   1.450       .  S
C678       N1768   1.157       .  T
C679        N686   1.157       .  T
C680        N684   1.157       .  T
C681        N687   1.157       .  T
C682        N691   1.157       .  T
C683        N689   1.157       .  T
N685       C1761   1.157       .  T
C692        C693   1.408       .  A
C692        C697   1.409       .  A
C692        C710   1.451       .  S
C693        C698   1.488       .  S
C693        C694   1.407       .  A
C694        C695   1.405       .  A
C694        C699   1.451       .  S
C695        C696   1.416       .  A
C695        C711   1.452       .  S
C696        C697   1.414       .  A
C697        C700   1.448       .  S
C698        C701   1.407       .  A
C698        C705   1.412       .  A
C699        N716   1.157       .  T
C700       N1801   1.157       .  T
C701        C702   1.408       .  A
C701        C706   1.450       .  S
C702        C703   1.414       .  A
C702        C708   1.451       .  S
C703        C704   1.411       .  A
C704        C705   1.407       .  A
C704        C707   1.451       .  S
C705        C709   1.452       .  S
C706        N713   1.157       .  T
C707        N714   1.157       .  T
C708        N712   1.157       .  T
C709        N715   1.157       .  T
C710        N719   1.157       .  T
C711        N717   1.157       .  T
N718       C1783   1.157       .  T
C720        C721   1.408       .  A
C720        C725   1.409       .  A
C720        C738   1.451       .  S
C721        C726   1.492       .  S
C721        C722   1.411       .  A
C722        C723   1.409       .  A
C722        C727   1.450       .  S
C723        C724   1.412       .  A
C723        C739   1.452       .  S
C724        C725   1.417       .  A
C725        C728   1.451       .  S
C726        C729   1.407       .  A
C726        C733   1.407       .  A
C727        N744   1.157       .  T
C728        N746   1.157       .  T
C729        C730   1.411       .  A
C729        C734   1.452       .  S
C730        C731   1.416       .  A
C730        C736   1.445       .  S
C731        C732   1.416       .  A
C732        C733   1.409       .  A
C732       C1818   1.446       .  S
C733        C737   1.451       .  S
C734        N741   1.157       .  T
C735       C1815   1.446       .  S
C735        N742   1.157       .  T
C736        N740   1.156       .  T
C737        N743   1.157       .  T
C738        N747   1.157       .  T
C739        N745   1.157       .  T
C748        C749   1.411   1_556  A
C748        C753   1.409       .  A
C748        C766   1.451   1_556  S
C749        C754   1.497       .  S
C749        C750   1.411   1_554  A
C750       C1834   1.410       .  A
C750       C1838   1.452   1_556  S
C751        C752   1.413       .  A
C751       C1833   1.410       .  A
C751        C767   1.448       .  S
C752       C1836   1.414       .  A
C753       C1835   1.414       .  A
C753        C756   1.450       .  S
C754        C761   1.409       .  A
C754       C1840   1.413       .  A
C755       C1833   1.452       .  S
C755        N772   1.157       .  T
C756        N774   1.157       .  T
C757       C1837   1.413       .  A
C757       C1841   1.411       .  A
C757        C762   1.451       .  S
C758        C759   1.412       .  A
C758       C1840   1.411       .  A
C758       C1847   1.448       .  S
C759        C760   1.418       .  A
C760        C761   1.407       .  A
C760        C763   1.452       .  S
C761        C765   1.452       .  S
C762        N769   1.157       .  T
C763        N770   1.157       .  T
C764       C1841   1.448       .  S
C764        N768   1.157       .  T
C765        N771   1.157       .  T
C766        N775   1.157       .  T
C767        N773   1.157       .  T
C776        C777   1.414       .  A
C776        C781   1.418       .  A
C776        C794   1.448       .  S
C777        C782   1.507       .  S
C777        C778   1.413       .  A
C778        C779   1.410       .  A
C778       C1866   1.452       .  S
C779        C780   1.416       .  A
C779       C1878   1.451       .  S
C780        C781   1.411       .  A
C781        C784   1.448       .  S
C782        C785   1.413       .  A
C782        C789   1.413       .  A
C783       C1861   1.452       .  S
C783        N800   1.157       .  T
C784        N802   1.157       .  T
C785        C786   1.419       .  A
C785        C790   1.449       .  S
C786        C787   1.414       .  A
C786        C792   1.448       .  S
C787        C788   1.416       .  A
C788        C789   1.410       .  A
C788        C791   1.453       .  S
C789        C793   1.452       .  S
C790        N797   1.157       .  T
C791        N798   1.157       .  T
C792        N796   1.157       .  T
C793        N799   1.157       .  T
C794        N803   1.157       .  T
C795       C1862   1.451       .  S
C795        N801   1.157       .  T
C804        C805   1.413       .  A
C804        C809   1.410       .  A
C804        C822   1.451   1_554  S
C805        C810   1.496   1_554  S
C805        C806   1.411       .  A
C806        C807   1.410       .  A
C806        C811   1.452       .  S
C807        C808   1.415       .  A
C807        C823   1.451       .  S
C808        C809   1.412       .  A
C809        C812   1.451       .  S
C810        C813   1.410       .  A
C810        C817   1.409       .  A
C811        N828   1.157       .  T
C812        N830   1.157       .  T
C813        C814   1.412       .  A
C813        C818   1.452       .  S
C814        C815   1.415       .  A
C814       C1903   1.446       .  S
C815       N1158   1.448       .  S
C815        C816   1.413       .  A
C816        C817   1.408       .  A
C816        C819   1.445       .  S
C817        C821   1.452   1_556  S
C818        N825   1.157       .  T
C819        N826   1.157       .  T
C820       C1897   1.446       .  S
C820        N824   1.157       .  T
C821        N827   1.157       .  T
C822        N831   1.157       .  T
C823        N829   1.157       .  T
C832        C833   1.408       .  A
C832        C837   1.408       .  A
C832        C850   1.451       .  S
C833        C838   1.490       .  S
C833        C834   1.409       .  A
C834        C835   1.409       .  A
C834        C839   1.451       .  S
C835        C836   1.413       .  A
C835        C851   1.448       .  S
C836        C837   1.415       .  A
C837        C840   1.452       .  S
C838        C841   1.410       .  A
C838        C845   1.409       .  A
C839        N856   1.157       .  T
C840        N858   1.157       .  T
C841        C842   1.407       .  A
C841        C846   1.452       .  S
C842        C843   1.415       .  A
C842        C848   1.452       .  S
C843        C844   1.413       .  A
C844        C845   1.410       .  A
C844        C847   1.450       .  S
C845        C849   1.450       .  S
C846        N853   1.157       .  T
C847        N854   1.157       .  T
C848        N852   1.157       .  T
C849        N855   1.157       .  T
C850        N859   1.157       .  T
C851        N857   1.157       .  T
C860        C861   1.407       .  A
C860       C1948   1.411       .  A
C860        C878   1.451       .  S
C861        C866   1.493       .  S
C861        C862   1.407       .  A
C862        C863   1.409       .  A
C862        C867   1.451       .  S
C863        C864   1.416       .  A
C863        C879   1.450       .  S
C864       C1155   1.490       .  S
C864       C1948   1.416       .  A
C865       C1943   1.411       .  A
C865       C1947   1.416       .  A
C865        C868   1.447       .  S
C866        C869   1.409       .  A
C866        C873   1.413   1_556  A
C867        N884   1.157       .  T
C868        N886   1.156       .  T
C869        C870   1.414   1_556  A
C869        C874   1.449       .  S
C870        C871   1.413       .  A
C870        C876   1.449       .  S
C871        C872   1.407       .  A
C872        C873   1.405       .  A
C872        C875   1.449       .  S
C873        C877   1.453       .  S
C874        N881   1.157       .  T
C875        N882   1.156       .  T
C876        N880   1.157       .  T
C877        N883   1.157       .  T
C878        N887   1.157       .  T
C879        N885   1.157       .  T
C888        C889   1.414       .  A
C888        C893   1.415       .  A
C888        C906   1.450       .  S
C889        C894   1.502       .  S
C889        C890   1.411       .  A
C890        C891   1.413       .  A
C890        C895   1.450       .  S
C891        C892   1.412       .  A
C891        C907   1.448       .  S
C892        C893   1.412       .  A
C893        C896   1.450       .  S
C894        C897   1.410       .  A
C894        C901   1.413       .  A
C895        N912   1.157       .  T
C896        N914   1.157       .  T
C897        C898   1.409       .  A
C897        C902   1.450       .  S
C898        C899   1.411       .  A
C898        C904   1.447       .  S
C899        C900   1.409       .  A
C900        C901   1.417       .  A
C900        C903   1.445       .  S
C901        C905   1.449       .  S
C902        N909   1.157       .  T
C903        N910   1.157       .  T
C904        N908   1.157       .  T
C905        N911   1.157       .  T
C906        N915   1.157       .  T
C907        N913   1.156       .  T
C916        C917   1.404       .  A
C916        C921   1.407       .  A
C916        C934   1.451       .  S
C917        C922   1.489       .  S
C917       C2001   1.409       .  A
C918        C919   1.408   1_554  A
C918       C2000   1.409   1_554  A
C918        C923   1.453       .  S
C919       C2003   1.416       .  A
C919        C935   1.446   1_556  S
C920        C921   1.423       .  A
C920       C2002   1.416       .  A
C921        C924   1.452       .  S
C922        C929   1.408       .  A
C922       C2008   1.409       .  A
C923        N940   1.157       .  T
C924        N942   1.157       .  T
C925        C926   1.411       .  A
C925       C2005   1.409       .  A
C925        C930   1.451       .  S
C926       C2010   1.414       .  A
C926        C932   1.448       .  S
C927        C928   1.416       .  A
C927       C2009   1.414       .  A
C928        C929   1.403       .  A
C928        C931   1.453       .  S
C929        C933   1.453       .  S
C930        N937   1.157   1_554  T
C931        N938   1.157       .  T
C932        N936   1.157       .  T
C933        N939   1.157       .  T
C934        N943   1.157       .  T
C935        N941   1.157       .  T
C944        C945   1.413       .  A
C944        C949   1.408       .  A
C944        C962   1.452   1_554  S
C945        C950   1.493       .  S
C945        C946   1.410       .  A
C946        C947   1.411       .  A
C946        C951   1.451       .  S
C947        C948   1.415       .  A
C947        C963   1.451       .  S
C948        C949   1.410       .  A
C949        C952   1.451   1_565  S
C950        C953   1.413   1_554  A
C950        C957   1.409   1_554  A
C951        N968   1.157       .  T
C952        N970   1.157       .  T
C953        C954   1.413       .  A
C953        C958   1.449       .  S
C954        C955   1.408       .  A
C954        C960   1.446       .  S
C955       N1091   1.440       .  S
C955        C956   1.411       .  A
C956        C957   1.402       .  A
C956        C959   1.451       .  S
C957        C961   1.451   1_556  S
C958        N965   1.157       .  T
C959        N966   1.157       .  T
C960        N964   1.157       .  T
C961        N967   1.157       .  T
C962        N971   1.157       .  T
C963        N969   1.157       .  T
C972        C973   1.408       .  A
C972        C977   1.408       .  A
C972        C990   1.450   1_565  S
C973        C978   1.483       .  S
C973        C974   1.408       .  A
C974        C975   1.404       .  A
C974        C979   1.452       .  S
C975        C976   1.412       .  A
C975        C991   1.451       .  S
C976        C977   1.411       .  A
C977        C980   1.448       .  S
C978        C981   1.408       .  A
C978        C985   1.410       .  A
C979        N996   1.157       .  T
C980        N998   1.157       .  T
C981        C982   1.410       .  A
C981        C986   1.450       .  S
C982        C983   1.413       .  A
C982        C988   1.450       .  S
C983        C984   1.412       .  A
C984        C985   1.401       .  A
C984        C987   1.452       .  S
C985        C989   1.453       .  S
C986        N993   1.157       .  T
C987        N994   1.157       .  T
C988        N992   1.157   1_565  T
C989        N995   1.157       .  T
C990        N999   1.157       .  T
C991        N997   1.157       .  T
C1000      C1001   1.409       .  A
C1000      C1005   1.414       .  A
C1000      C2101   1.452       .  S
C1001      C1006   1.504       .  S
C1001      C1002   1.406       .  A
C1002      C1003   1.417       .  A
C1002      C1007   1.450       .  S
C1003      C1004   1.420       .  A
C1003      C1019   1.444       .  S
C1004      C1005   1.418       .  A
C1005      C1008   1.448       .  S
C1006      C1009   1.415       .  A
C1006      C1013   1.407       .  A
C1007      N1024   1.157       .  T
C1008      N1026   1.157       .  T
C1009      C1010   1.416       .  A
C1009      C1014   1.449       .  S
C1010      C1011   1.409       .  A
C1010      C1016   1.449       .  S
C1011      C2095   1.421       .  A
C1012      C2094   1.420       .  A
C1012      C2096   1.412       .  A
C1012      C1015   1.451       .  S
C1013      C2095   1.412       .  A
C1013      C2100   1.451       .  S
C1014      N1021   1.157       .  T
C1015      N1022   1.157       .  T
C1016      N1020   1.157       .  T
C1017      C2096   1.451       .  S
C1017      N1023   1.157   1_556  T
C1018      C2083   1.452       .  S
C1018      N1027   1.157       .  T
C1019      N1025   1.156       .  T
C1028      C1029   1.409       .  A
C1028      C1033   1.411   1_566  A
C1028      C1046   1.450       .  S
C1029      C1034   1.489       .  S
C1029      C1030   1.414   1_556  A
C1030      C1031   1.403       .  A
C1030      C1035   1.453       .  S
C1031      C1032   1.407       .  A
C1031      C1047   1.452       .  S
C1032      C1033   1.412   1_565  A
C1033      C1036   1.450       .  S
C1034      C1037   1.408       .  A
C1034      C1041   1.405       .  A
C1035      N1052   1.157       .  T
C1036      N1054   1.157       .  T
C1037      C1038   1.410       .  A
C1037      C1042   1.451   1_565  S
C1038      C1039   1.416       .  A
C1038      C1044   1.449       .  S
C1039      C1040   1.416       .  A
C1040      C1041   1.407       .  A
C1040      C1043   1.447       .  S
C1041      C1045   1.452       .  S
C1042      N1049   1.157       .  T
C1043      N1050   1.156       .  T
C1044      N1048   1.157       .  T
C1045      N1051   1.157       .  T
C1046      N1055   1.157   1_565  T
C1047      N1053   1.157       .  T
C1056      C1057   1.413       .  A
C1056      C1061   1.417       .  A
C1056      C1074   1.449       .  S
C1057      C1062   1.506       .  S
C1057      C1058   1.414       .  A
C1058      C1059   1.414       .  A
C1058      C1063   1.451       .  S
C1059      C1060   1.411       .  A
C1059      C1075   1.450   1_565  S
C1060      C1061   1.415       .  A
C1061      C1064   1.450       .  S
C1062      C1065   1.411       .  A
C1062      C1069   1.415       .  A
C1063      N1080   1.157       .  T
C1064      N1082   1.157       .  T
C1065      C1066   1.411       .  A
C1065      C1070   1.450       .  S
C1066      C1067   1.413       .  A
C1066      C2155   1.448       .  S
C1067      C1068   1.408       .  A
C1068      C1069   1.419       .  A
C1068      C1071   1.445       .  S
C1069      C1073   1.448       .  S
C1070      N1077   1.157       .  T
C1071      N1078   1.157       .  T
C1072      C2149   1.448       .  S
C1072      N1076   1.157       .  T
C1073      N1079   1.157       .  T
C1074      N1083   1.157       .  T
C1075      N1081   1.157       .  T
N1084      C1085   1.364       .  A
N1084      C2150   1.451       .  S
C1085      C2094   1.491       .  S
C1086      C1087   1.367       .  A
C1086      H1089   1.083       .  S
C1087      C1088   1.377       .  A
C1087      H1090   1.082       .  S
C1088      C2122   1.487       .  S
N1091      C1095   1.351       .  A
N1091      C1092   1.356       .  A
C1092      C2003   1.492       .  S
C1092      C1093   1.389       .  A
C1093      C1094   1.376       .  A
C1093      H1096   1.082       .  S
C1094      C1095   1.377       .  A
C1094      H1097   1.082       .  S
C1095      C2059   1.478       .  S
C1098      N1116   1.349       .  A
C1098      C1135   1.463   1_565  S
C1098      C2143   1.491       .  S
N1099      N1116   1.326   1_545  A
N1099      N1121   1.319       .  A
N1099     Co1136   2.082       .  S
C1100      N1125   1.338       .  A
C1100      C1138   1.453       .  S
C1100      H1145   1.082       .  S
H1101      C1142   1.082       .  S
C1102      N1126   1.345       .  A
C1102      C1106   1.463       .  S
C1102      H1131   1.082       .  S
Co1103     N1121   2.097       .  S
Co1103     N1111   2.080       .  S
Co1103     N1143   2.078       .  S
Co1103     N1119   2.093       .  S
Co1103    Cl1147   2.449       .  S
N1104      C1142   1.341       .  A
N1104      N1111   1.323       .  A
N1104     Co1105   2.093       .  S
Co1105     N1108   2.080       .  S
Co1105     N1125   2.066       .  S
Co1105     N1112   2.096       .  S
Co1105    Cl1147   2.450       .  S
C1106      N1144   1.350       .  A
C1106      C1975   1.488       .  S
N1107      N1114   1.323       .  A
N1107      N1137   1.318       .  A
N1107     Co1140   2.071       .  S
N1108      N1126   1.317       .  A
N1108      N1144   1.326       .  A
N1109      C1138   1.352       .  A
N1109      N1119   1.326       .  A
H1110      C1135   1.082       .  S
N1111      N1132   1.322       .  A
N1112      N1130   1.321       .  A
N1112      N1117   1.326       .  A
C1113      N1117   1.349       .  A
C1113      C1141   1.455       .  S
C1113      C1954   1.476       .  S
N1114      C1129   1.343   1_545  A
N1114     Co1136   2.092       .  S
C1115      N1143   1.336       .  A
C1115      C1118   1.451       .  S
C1115      H1149   1.081       .  S
C1118      N1139   1.349   1_545  A
C1118      C2115   1.471   1_545  S
N1119      N1125   1.318       .  A
N1120      C1146   1.338   1_545  A
N1120      N1122   1.317       .  A
N1120     Co1136   2.068       .  S
N1121      C1135   1.345       .  A
N1122      N1150   1.326       .  A
N1122     Co1140   2.089       .  S
H1123      C1146   1.082       .  S
H1124      C1141   1.081       .  S
N1126     Co1140   2.095       .  S
N1127      N1139   1.326   1_545  A
N1127      N1143   1.322       .  A
N1127     Co1136   2.088       .  S
C1128      N1132   1.348       .  A
C1128      C1142   1.461       .  S
C1128      C1926   1.481       .  S
C1129      C1148   1.461   1_565  S
C1129      H1133   1.081       .  S
N1130      C1141   1.341       .  A
N1130     Co1140   2.080       .  S
C1134      N1150   1.352   1_565  A
C1134      C1146   1.453       .  S
C1134      C2031   1.480       .  S
Co1136    Cl1147   2.452       .  S
N1137      C1148   1.343       .  A
C1138      C1891   1.482       .  S
Co1140    Cl1147   2.450       .  S
C1148      C2066   1.473   1_545  S
N1151      C1155   1.362       .  A
N1151      C1152   1.364       .  A
N1151      C1982   1.448       .  S
C1152      C1863   1.489       .  S
C1152      C1153   1.385       .  A
C1153      H1156   1.083       .  S
C1154      H1157   1.082       .  S
N1158      C1162   1.357       .  A
N1158      C1159   1.360       .  A
C1159      C1835   1.487       .  S
C1159      C1160   1.382       .  A
C1160      C1161   1.375       .  A
C1160      H1163   1.082       .  S
C1161      C1162   1.382       .  A
C1161      H1164   1.082       .  S
C1162      C1919   1.486       .  S
C1165      N1183   1.352       .  A
C1165      C1202   1.457       .  S
C1165      C1751   1.484       .  S
N1166      N1183   1.326       .  A
N1166      N1188   1.320       .  A
N1166     Co1203   2.094       .  S
C1167      N1192   1.342       .  A
C1167      C1205   1.460       .  S
C1167      H1212   1.083       .  S
H1168      C1209   1.082       .  S
C1169      N1193   1.342       .  A
C1169      C1173   1.461       .  S
C1169      H1198   1.082       .  S
Co1170     N1188   2.081       .  S
Co1170     N1178   2.078       .  S
Co1170     N1210   2.082       .  S
Co1170     N1186   2.071       .  S
Co1170    Cl1214   2.443       .  S
N1171      C1209   1.340       .  A
N1171      N1178   1.320       .  A
N1171     Co1172   2.082       .  S
Co1172     N1175   2.096   1_455  S
Co1172     N1192   2.086       .  S
Co1172     N1179   2.083   1_455  S
Co1172    Cl1214   2.460       .  S
C1173      N1211   1.352       .  A
C1173      C1639   1.487       .  S
N1174      N1181   1.322       .  A
N1174      N1204   1.325       .  A
N1174     Co1207   2.087       .  S
N1175      N1193   1.320       .  A
N1175      N1211   1.327       .  A
N1176      C1205   1.345       .  A
N1176      N1186   1.321       .  A
H1177      C1202   1.081       .  S
N1178      N1199   1.322       .  A
N1179      N1197   1.320       .  A
N1179      N1184   1.326       .  A
C1180      N1184   1.350       .  A
C1180      C1208   1.457       .  S
C1180      C1611   1.482       .  S
N1181      C1196   1.341       .  A
N1181     Co1203   2.091   1_655  S
C1182      N1210   1.340       .  A
C1182      C1185   1.458       .  S
C1182      H1216   1.081       .  S
C1185      N1206   1.353       .  A
C1185      C1723   1.490       .  S
N1186      N1192   1.320       .  A
N1187      C1213   1.339       .  A
N1187      N1189   1.320       .  A
N1187     Co1203   2.081   1_655  S
N1188      C1202   1.340       .  A
N1189      N1217   1.324       .  A
N1189     Co1207   2.084       .  S
H1190      C1213   1.082       .  S
H1191      C1208   1.081       .  S
N1193     Co1207   2.090       .  S
N1194      N1206   1.328       .  A
N1194      N1210   1.318       .  A
N1194     Co1203   2.094       .  S
C1195      N1199   1.348       .  A
C1195      C1209   1.461       .  S
C1195      C1807   1.483       .  S
C1196      C1215   1.462       .  S
C1196      H1200   1.082   1_655  S
N1197      C1208   1.339       .  A
N1197     Co1207   2.084       .  S
C1201      N1217   1.348       .  A
C1201      C1213   1.457       .  S
C1201      C1674   1.473       .  S
Co1203    Cl1214   2.458       .  S
N1204      C1215   1.350       .  A
C1205      C1786   1.476       .  S
Co1207    Cl1214   2.446   1_655  S
C1215      C1695   1.487       .  S
N1218      C1222   1.369       .  A
N1218      C1219   1.370       .  A
C1219      C1583   1.500       .  S
C1219      C1220   1.383       .  A
C1220      C1221   1.365       .  A
C1220      H1223   1.083       .  S
C1221      C1222   1.380       .  A
C1221      H1224   1.082       .  S
C1222      C1730   1.501       .  S
N1225      C1229   1.361       .  A
N1225      C1226   1.361       .  A
N1225      C1702   1.452       .  S
C1226      C1842   1.490       .  S
C1226      C1227   1.384       .  A
C1227      C1228   1.371       .  A
C1227      H1230   1.082       .  S
C1228      C1229   1.379       .  A
C1228      H1231   1.082       .  S
C1229      C1667   1.487       .  S
N1232      C1236   1.360       .  A
N1232      C1233   1.364       .  A
C1233      C1555   1.496       .  S
C1233      C1234   1.386       .  A
C1234      C1235   1.371       .  A
C1234      H1237   1.082       .  S
C1235      C1236   1.377       .  A
C1235      H1238   1.082       .  S
C1236      C1618   1.489       .  S
N1239      C1240   1.361       .  A
N1239      C1814   1.450       .  S
C1240      C2010   1.482       .  S
C1241      C1242   1.367       .  A
C1241      H1244   1.082       .  S
C1242      C1243   1.380       .  A
C1242      H1245   1.082       .  S
C1243      C1779   1.484       .  S
C1246      N1264   1.357       .  A
C1246      C1283   1.454       .  S
C1246      C1471   1.487       .  S
N1247      N1264   1.330       .  A
N1247      N1269   1.320       .  A
N1247     Co1284   2.104       .  S
C1248      N1273   1.344       .  A
C1248      C1286   1.462       .  S
C1248      H1293   1.081       .  S
H1249      C1290   1.082       .  S
C1250      N1274   1.341       .  A
C1250      C1254   1.456       .  S
C1250      H1279   1.082       .  S
Co1251     N1269   2.078       .  S
Co1251     N1259   2.083       .  S
Co1251     N1291   2.087       .  S
Co1251     N1267   2.081       .  S
Co1251    Cl1295   2.440       .  S
N1252      C1290   1.349       .  A
N1252      N1259   1.321       .  A
N1252     Co1253   2.113       .  S
Co1253     N1256   2.094       .  S
Co1253     N1273   2.092       .  S
Co1253     N1260   2.100       .  S
Co1253    Cl1295   2.469       .  S
C1254      N1292   1.351       .  A
C1254      C1359   1.483       .  S
N1255      N1262   1.322       .  A
N1255      N1285   1.323       .  A
N1255     Co1288   2.085       .  S
N1256      N1274   1.322       .  A
N1256      N1292   1.327       .  A
N1257      C1286   1.348       .  A
N1257      N1267   1.324       .  A
H1258      C1283   1.082       .  S
N1259      N1280   1.323       .  A
N1260      N1278   1.321       .  A
N1260      N1265   1.328       .  A
C1261      N1265   1.353       .  A
C1261      C1289   1.457       .  S
C1261      C1331   1.487       .  S
N1262      C1277   1.349       .  A
N1262     Co1284   2.112       .  S
C1263      N1291   1.341       .  A
C1263      C1266   1.456       .  S
C1263      H1297   1.081       .  S
C1266      N1287   1.351       .  A
C1266      C1443   1.484       .  S
N1267      N1273   1.319       .  A
N1268      C1294   1.341       .  A
N1268      N1270   1.320       .  A
N1268     Co1284   2.087       .  S
N1269      C1283   1.337       .  A
N1270      N1298   1.325       .  A
N1270     Co1288   2.088       .  S
H1271      C1294   1.082       .  S
H1272      C1289   1.082       .  S
N1274     Co1288   2.086       .  S
N1275      N1287   1.328       .  A
N1275      N1291   1.321       .  A
N1275     Co1284   2.098       .  S
C1276      N1280   1.348       .  A
C1276      C1290   1.471       .  S
C1276      C1534   1.498       .  S
C1277      C1296   1.471       .  S
C1277      H1281   1.082       .  S
N1278      C1289   1.340       .  A
N1278     Co1288   2.085       .  S
C1282      N1298   1.351       .  A
C1282      C1294   1.461       .  S
C1282      C1394   1.488       .  S
Co1284    Cl1295   2.472       .  S
N1285      C1296   1.348       .  A
C1286      C1499   1.481       .  S
Co1288    Cl1295   2.443       .  S
C1296      C1422   1.498       .  S
N1299      C1303   1.368       .  A
N1299      C1300   1.363       .  A
N1299      C1506   1.448       .  S
C1300      C1870   1.495       .  S
C1300      C1301   1.382       .  A
C1301      C1302   1.371       .  A
C1301      H1304   1.082       .  S
C1302      C1303   1.382       .  A
C1303      C1527   1.504       .  S
N1306      C1310   1.367       .  A
N1306      C1307   1.368       .  A
N1306      C1366   1.453       .  S
C1307      C1590   1.497       .  S
C1307      C1308   1.383       .  A
C1308      C1309   1.368       .  A
C1308      H1311   1.082       .  S
C1309      C1310   1.379       .  A
C1309      H1312   1.082       .  S
C1310      C1338   1.496       .  S
N1313      C1317   1.366       .  A
N1313      C1314   1.368       .  A
N1313      C1478   1.453       .  S
C1314      C1562   1.497       .  S
C1314      C1315   1.385       .  A
C1315      C1316   1.366       .  A
C1315      H1318   1.083       .  S
C1316      C1317   1.378       .  A
C1316      H1319   1.082       .  S
C1317      C1450   1.492       .  S
N1320      C1324   1.362       .  A
N1320      C1321   1.372       .  A
N1320      C1415   1.457       .  S
C1321      C2087   1.499       .  S
C1321      C1322   1.383       .  A
C1322      C1323   1.365       .  A
C1322      H1325   1.083       .  S
C1323      C1324   1.377       .  A
C1323      H1326   1.082       .  S
C1324      C1387   1.485       .  S
C1327      C1328   1.410       .  A
C1327      C1332   1.413       .  A
C1327      C1345   1.450       .  S
C1328      C1333   1.502       .  S
C1328      C1329   1.414       .  A
C1329      C1330   1.412       .  A
C1329      C1334   1.451       .  S
C1330      C1331   1.413       .  A
C1330      C1346   1.450       .  S
C1331      C1332   1.412       .  A
C1332      C1335   1.446       .  S
C1333      C1336   1.411       .  A
C1333      C1340   1.409       .  A
C1334      N1351   1.157       .  T
C1335      N1353   1.156       .  T
C1336      C1337   1.414       .  A
C1336      C1341   1.451       .  S
C1337      C1338   1.415       .  A
C1337      C1343   1.448       .  S
C1338      C1339   1.419       .  A
C1339      C1340   1.412       .  A
C1339      C1342   1.450       .  S
C1340      C1344   1.451       .  S
C1341      N1348   1.157       .  T
C1342      N1349   1.157       .  T
C1343      N1347   1.157       .  T
C1344      N1350   1.157       .  T
C1345      N1354   1.157       .  T
C1346      N1352   1.157       .  T
C1355      C1356   1.412       .  A
C1355      C1360   1.414       .  A
C1355      C1373   1.450       .  S
C1356      C1361   1.501       .  S
C1356      C1357   1.413       .  A
C1357      C1358   1.412       .  A
C1357      C1362   1.450       .  S
C1358      C1359   1.410       .  A
C1358      C1374   1.451       .  S
C1359      C1360   1.413       .  A
C1360      C1363   1.450       .  S
C1361      C1364   1.410       .  A
C1361      C1368   1.408       .  A
C1363      N1381   1.157       .  T
C1364      C1365   1.416       .  A
C1364      C1369   1.450       .  S
C1365      C1371   1.445       .  S
C1366      C1367   1.415       .  A
C1367      C1370   1.446       .  S
C1368      C1372   1.451       .  S
C1369      N1376   1.157       .  T
C1370      N1377   1.157       .  T
C1372      N1378   1.157       .  T
C1373      N1382   1.157       .  T
C1374      N1380   1.157       .  T
C1383      C1384   1.409       .  A
C1383      C1388   1.406       .  A
C1383      C1401   1.452       .  S
C1384      C1389   1.494       .  S
C1384      C1385   1.411       .  A
C1385      C1386   1.414       .  A
C1385      C1390   1.449       .  S
C1386      C1387   1.412       .  A
C1386      C1402   1.448       .  S
C1387      C1388   1.415       .  A
C1388      C1391   1.452       .  S
C1389      C1392   1.410       .  A
C1389      C1396   1.409       .  A
C1390      N1407   1.157       .  T
C1391      N1409   1.157       .  T
C1392      C1393   1.410       .  A
C1392      C1397   1.452       .  S
C1393      C1394   1.416       .  A
C1393      C1399   1.451       .  S
C1394      C1395   1.416       .  A
C1395      C1396   1.412       .  A
C1395      C1398   1.451       .  S
C1396      C1400   1.450       .  S
C1397      N1404   1.157       .  T
C1398      N1405   1.157       .  T
C1399      N1403   1.157       .  T
C1400      N1406   1.157       .  T
C1401      N1410   1.157       .  T
C1402      N1408   1.157       .  T
C1411      C1412   1.409       .  A
C1411      C1429   1.451       .  S
C1412      C1417   1.509       .  S
C1413      C1414   1.419       .  A
C1413      C1418   1.450       .  S
C1414      C1415   1.418       .  A
C1414      C1430   1.446       .  S
C1415      C1416   1.419       .  A
C1416      C1419   1.447       .  S
C1417      C1420   1.410       .  A
C1417      C1424   1.414       .  A
C1418      N1435   1.157       .  T
C1419      N1437   1.157       .  T
C1420      C1421   1.415       .  A
C1420      C1425   1.450       .  S
C1421      C1422   1.418       .  A
C1421      C1427   1.451       .  S
C1422      C1423   1.413       .  A
C1423      C1424   1.416       .  A
C1423      C1426   1.449       .  S
C1424      C1428   1.449       .  S
C1425      N1432   1.157       .  T
C1426      N1433   1.157       .  T
C1427      N1431   1.157       .  T
C1429      N1438   1.157       .  T
C1430      N1436   1.157       .  T
C1439      C1440   1.409       .  A
C1439      C1444   1.413       .  A
C1439      C1457   1.450       .  S
C1440      C1445   1.497       .  S
C1440      C1441   1.413       .  A
C1441      C1442   1.411       .  A
C1441      C1446   1.451       .  S
C1442      C1443   1.410       .  A
C1442      C1458   1.450       .  S
C1443      C1444   1.413       .  A
C1444      C1447   1.447       .  S
C1445      C1448   1.408       .  A
C1445      C1452   1.410       .  A
C1446      N1463   1.157       .  T
C1447      N1465   1.156       .  T
C1448      C1449   1.409       .  A
C1448      C1453   1.451       .  S
C1449      C1450   1.417       .  A
C1449      C1455   1.452       .  S
C1450      C1451   1.414       .  A
C1451      C1452   1.413       .  A
C1451      C1454   1.449       .  S
C1452      C1456   1.450       .  S
C1453      N1460   1.157       .  T
C1454      N1461   1.157       .  T
C1455      N1459   1.157       .  T
C1456      N1462   1.157       .  T
C1457      N1466   1.157       .  T
C1458      N1464   1.157       .  T
C1467      C1468   1.412       .  A
C1467      C1472   1.413       .  A
C1467      C1485   1.450       .  S
C1468      C1473   1.503       .  S
C1468      C1469   1.413       .  A
C1469      C1470   1.414       .  A
C1469      C1474   1.451       .  S
C1470      C1471   1.411       .  A
C1470      C1486   1.449       .  S
C1471      C1472   1.414       .  A
C1472      C1475   1.451       .  S
C1473      C1476   1.409       .  A
C1473      C1480   1.411       .  A
C1475      N1493   1.157       .  T
C1476      C1481   1.451       .  S
C1477      C1478   1.416       .  A
C1477      C1483   1.447       .  S
C1479      C1480   1.416       .  A
C1479      C1482   1.446       .  S
C1480      C1484   1.450       .  S
C1482      N1489   1.157       .  T
C1483      N1487   1.157       .  T
C1484      N1490   1.157       .  T
C1485      N1494   1.157       .  T
C1486      N1492   1.157       .  T
C1495      C1496   1.411       .  A
C1495      C1500   1.413       .  A
C1495      C1513   1.449       .  S
C1496      C1501   1.494       .  S
C1496      C1497   1.410       .  A
C1497      C1498   1.408       .  A
C1497      C1502   1.453       .  S
C1498      C1499   1.410       .  A
C1498      C1514   1.446       .  S
C1499      C1500   1.413       .  A
C1500      C1503   1.450       .  S
C1501      C1504   1.409       .  A
C1501      C1508   1.408       .  A
C1502      N1519   1.157       .  T
C1503      N1521   1.157       .  T
C1504      C1505   1.411       .  A
C1504      C1509   1.451       .  S
C1505      C1506   1.415       .  A
C1505      C1511   1.445       .  S
C1506      C1507   1.413       .  A
C1507      C1508   1.410       .  A
C1507      C1510   1.447       .  S
C1508      C1512   1.450       .  S
C1509      N1516   1.157       .  T
C1510      N1517   1.157       .  T
C1511      N1515   1.157       .  T
C1512      N1518   1.157       .  T
C1513      N1522   1.157       .  T
C1514      N1520   1.156       .  T
C1523      C1524   1.410       .  A
C1523      C1541   1.451       .  S
C1524      C1529   1.507       .  S
C1524      C1525   1.409       .  A
C1525      C1526   1.415       .  A
C1525      C1530   1.451       .  S
C1526      C1542   1.451       .  S
C1527      C1528   1.417       .  A
C1528      C1531   1.446       .  S
C1529      C1532   1.412       .  A
C1529      C1536   1.412       .  A
C1530      N1547   1.157       .  T
C1531      N1549   1.156       .  T
C1532      C1533   1.419       .  A
C1532      C1537   1.449       .  S
C1533      C1534   1.416       .  A
C1533      C1539   1.450       .  S
C1534      C1535   1.418       .  A
C1535      C1536   1.413       .  A
C1535      C1538   1.452       .  S
C1536      C1540   1.452       .  S
C1537      N1544   1.157       .  T
C1538      N1545   1.157       .  T
C1539      N1543   1.157       .  T
C1540      N1546   1.157       .  T
C1542      N1548   1.157       .  T
C1551      C1552   1.412       .  A
C1551      C1556   1.415       .  A
C1551      C1569   1.451   1_554  S
C1552      C1557   1.501       .  S
C1553      C1554   1.412       .  A
C1553      C1558   1.451       .  S
C1554      C1555   1.421       .  A
C1554      C1570   1.451       .  S
C1556      C1559   1.447       .  S
C1557      C1560   1.412       .  A
C1557      C1564   1.406       .  A
C1558      N1575   1.157       .  T
C1559      N1577   1.157       .  T
C1560      C1561   1.416       .  A
C1561      C1562   1.414   1_554  A
C1562      C1563   1.421       .  A
C1563      C1564   1.410   1_556  A
C1563      C1566   1.452       .  S
C1564      C1568   1.451       .  S
C1565      N1572   1.157       .  T
C1566      N1573   1.157       .  T
C1567      N1571   1.157       .  T
C1568      N1574   1.157   1_554  T
C1569      N1578   1.157       .  T
C1570      N1576   1.157       .  T
C1579      C1580   1.415       .  A
C1579      C1584   1.419       .  A
C1579      C1597   1.450       .  S
C1580      C1585   1.506       .  S
C1581      C1582   1.410       .  A
C1581      C1586   1.451       .  S
C1582      C1583   1.421       .  A
C1582      C1598   1.453       .  S
C1584      C1587   1.448       .  S
C1585      C1588   1.409   1_554  A
C1586      N1603   1.157       .  T
C1587      N1605   1.157       .  T
C1588      C1589   1.413       .  A
C1588      C1593   1.451       .  S
C1589      C1590   1.420       .  A
C1589      C1595   1.452       .  S
C1591      C1592   1.416       .  A
C1591      C1594   1.447       .  S
C1592      C1596   1.451       .  S
C1593      N1600   1.157       .  T
C1594      N1601   1.157       .  T
C1595      N1599   1.157       .  T
C1596      N1602   1.157       .  T
C1597      N1606   1.157   1_554  T
C1598      N1604   1.157       .  T
C1607      C1608   1.410       .  A
C1607      C1612   1.413       .  A
C1607      C1625   1.449       .  S
C1608      C1613   1.495       .  S
C1608      C1609   1.413       .  A
C1609      C1610   1.407       .  A
C1609      C1614   1.453       .  S
C1610      C1611   1.412       .  A
C1610      C1626   1.451       .  S
C1611      C1612   1.415       .  A
C1612      C1615   1.451       .  S
C1613      C1616   1.409       .  A
C1613      C1620   1.408       .  A
C1614      N1631   1.157       .  T
C1615      N1633   1.157   1_655  T
C1616      C1617   1.409       .  A
C1616      C1621   1.452       .  S
C1617      C1618   1.414       .  A
C1617      C1623   1.448       .  S
C1618      C1619   1.416       .  A
C1619      C1620   1.412       .  A
C1619      C1622   1.448       .  S
C1620      C1624   1.451       .  S
C1621      N1628   1.157       .  T
C1622      N1629   1.157       .  T
C1623      N1627   1.157       .  T
C1624      N1630   1.157       .  T
C1625      N1634   1.157       .  T
C1626      N1632   1.157       .  T
C1635      C1636   1.412   1_556  A
C1635      C1640   1.414       .  A
C1635      C1653   1.450       .  S
C1636      C1641   1.503       .  S
C1636      C1637   1.413       .  A
C1637      C1638   1.414       .  A
C1637      C1642   1.451       .  S
C1638      C1639   1.411   1_554  A
C1638      C1654   1.450       .  S
C1639      C1640   1.413       .  A
C1640      C1643   1.450       .  S
C1641      C1644   1.410       .  A
C1641      C1648   1.414       .  A
C1642      N1659   1.157       .  T
C1643      N1661   1.157       .  T
C1644      C1645   1.409       .  A
C1644      C1649   1.451       .  S
C1645      C1646   1.413       .  A
C1645      C1651   1.449       .  S
C1647      C1650   1.445       .  S
C1648      C1652   1.449       .  S
C1649      N1656   1.157       .  T
C1650      N1657   1.157       .  T
C1651      N1655   1.157       .  T
C1653      N1662   1.157       .  T
C1654      N1660   1.157       .  T
C1663      C1664   1.410       .  A
C1663      C1668   1.408       .  A
C1663      C1681   1.452       .  S
C1664      C1669   1.492       .  S
C1664      C1665   1.408       .  A
C1665      C1666   1.411       .  A
C1665      C1670   1.451       .  S
C1666      C1667   1.414       .  A
C1666      C1682   1.449       .  S
C1667      C1668   1.415       .  A
C1668      C1671   1.450       .  S
C1669      C1672   1.411       .  A
C1669      C1676   1.412       .  A
C1670      N1687   1.157       .  T
C1671      N1689   1.157       .  T
C1672      C1673   1.409       .  A
C1672      C1677   1.450       .  S
C1673      C1674   1.409       .  A
C1673      C1679   1.450       .  S
C1674      C1675   1.410       .  A
C1675      C1676   1.408       .  A
C1675      C1678   1.451       .  S
C1676      C1680   1.450       .  S
C1677      N1684   1.157       .  T
C1678      N1685   1.157       .  T
C1679      N1683   1.157       .  T
C1680      N1686   1.157       .  T
C1681      N1690   1.157       .  T
C1682      N1688   1.157       .  T
C1691      C1692   1.411   1_556  A
C1691      C1696   1.412       .  A
C1691      C1709   1.451       .  S
C1692      C1697   1.498       .  S
C1692      C1693   1.411       .  A
C1693      C1694   1.412       .  A
C1693      C1698   1.450       .  S
C1694      C1695   1.413   1_554  A
C1694      C1710   1.451       .  S
C1695      C1696   1.415       .  A
C1696      C1699   1.450       .  S
C1697      C1700   1.407       .  A
C1697      C1704   1.410       .  A
C1698      N1715   1.157       .  T
C1699      N1717   1.157       .  T
C1700      C1701   1.408       .  A
C1700      C1705   1.452       .  S
C1701      C1707   1.446       .  S
C1702      C1703   1.416       .  A
C1703      C1706   1.446       .  S
C1705      N1712   1.157       .  T
C1706      N1713   1.157       .  T
C1707      N1711   1.157       .  T
C1708      N1714   1.157       .  T
C1709      N1718   1.157       .  T
C1710      N1716   1.157       .  T
C1719      C1720   1.411       .  A
C1719      C1724   1.414       .  A
C1719      C1737   1.450       .  S
C1720      C1725   1.502       .  S
C1720      C1721   1.413       .  A
C1721      C1722   1.412       .  A
C1721      C1726   1.451       .  S
C1722      C1723   1.415       .  A
C1722      C1738   1.451       .  S
C1723      C1724   1.414       .  A
C1724      C1727   1.450       .  S
C1725      C1728   1.411       .  A
C1725      C1732   1.409       .  A
C1726      N1743   1.157       .  T
C1727      N1745   1.157       .  T
C1728      C1729   1.416       .  A
C1728      C1733   1.451       .  S
C1729      C1730   1.417       .  A
C1729      C1735   1.448       .  S
C1730      C1731   1.420       .  A
C1731      C1732   1.411       .  A
C1731      C1734   1.452       .  S
C1732      C1736   1.452       .  S
C1733      N1740   1.157       .  T
C1734      N1741   1.157       .  T
C1735      N1739   1.157       .  T
C1736      N1742   1.157       .  T
C1737      N1746   1.157       .  T
C1738      N1744   1.157       .  T
C1747      C1748   1.413       .  A
C1747      C1752   1.412   1_554  A
C1747      C1765   1.451       .  S
C1748      C1753   1.500       .  S
C1748      C1749   1.412   1_554  A
C1749      C1750   1.413       .  A
C1749      C1754   1.450       .  S
C1750      C1751   1.413       .  A
C1750      C1766   1.451       .  S
C1751      C1752   1.411       .  A
C1752      C1755   1.451   1_556  S
C1753      C1756   1.407       .  A
C1753      C1760   1.411       .  A
C1754      N1771   1.157       .  T
C1755      N1773   1.157       .  T
C1756      C1761   1.451       .  S
C1757      C1763   1.447       .  S
C1758      C1759   1.416       .  A
C1759      C1760   1.416       .  A
C1759      C1762   1.446       .  S
C1760      C1764   1.450       .  S
C1762      N1769   1.157       .  T
C1763      N1767   1.157       .  T
C1764      N1770   1.157   1_554  T
C1765      N1774   1.157       .  T
C1766      N1772   1.157       .  T
C1775      C1776   1.407       .  A
C1775      C1780   1.409       .  A
C1775      C1793   1.451       .  S
C1776      C1781   1.488       .  S
C1776      C1777   1.407       .  A
C1777      C1778   1.405       .  A
C1777      C1782   1.451       .  S
C1778      C1779   1.416       .  A
C1778      C1794   1.452       .  S
C1779      C1780   1.414       .  A
C1780      C1783   1.448       .  S
C1781      C1784   1.407       .  A
C1781      C1788   1.412       .  A
C1782      N1799   1.157       .  T
C1784      C1785   1.408       .  A
C1784      C1789   1.450       .  S
C1785      C1786   1.414       .  A
C1785      C1791   1.451       .  S
C1786      C1787   1.411       .  A
C1787      C1788   1.407       .  A
C1787      C1790   1.451       .  S
C1788      C1792   1.452       .  S
C1789      N1796   1.157       .  T
C1790      N1797   1.157       .  T
C1791      N1795   1.157       .  T
C1792      N1798   1.157       .  T
C1793      N1802   1.157       .  T
C1794      N1800   1.157       .  T
C1803      C1804   1.408       .  A
C1803      C1808   1.409       .  A
C1803      C1821   1.451       .  S
C1804      C1809   1.493   1_556  S
C1804      C1805   1.411   1_556  A
C1805      C1806   1.409   1_554  A
C1805      C1810   1.450       .  S
C1806      C1807   1.413       .  A
C1806      C1822   1.452       .  S
C1807      C1808   1.417       .  A
C1808      C1811   1.451       .  S
C1809      C1812   1.407       .  A
C1809      C1816   1.407       .  A
C1810      N1827   1.157       .  T
C1811      N1829   1.157       .  T
C1812      C1813   1.411       .  A
C1812      C1817   1.452   1_554  S
C1813      C1814   1.416       .  A
C1813      C1819   1.445       .  S
C1814      C1815   1.415       .  A
C1815      C1816   1.409       .  A
C1816      C1820   1.451       .  S
C1817      N1824   1.157       .  T
C1818      N1825   1.157       .  T
C1819      N1823   1.156       .  T
C1820      N1826   1.157       .  T
C1821      N1830   1.157       .  T
C1822      N1828   1.157   1_556  T
C1831      C1832   1.411       .  A
C1831      C1836   1.409       .  A
C1831      C1849   1.451       .  S
C1832      C1837   1.497       .  S
C1832      C1833   1.411       .  A
C1834      C1835   1.413       .  A
C1834      C1850   1.448       .  S
C1836      C1839   1.450       .  S
C1837      C1844   1.409       .  A
C1838      N1855   1.157       .  T
C1839      N1857   1.157       .  T
C1840      C1845   1.451       .  S
C1841      C1842   1.412       .  A
C1842      C1843   1.418       .  A
C1843      C1844   1.407       .  A
C1843      C1846   1.452       .  S
C1844      C1848   1.452       .  S
C1845      N1852   1.157   1_554  T
C1846      N1853   1.157       .  T
C1847      N1851   1.157       .  T
C1848      N1854   1.157       .  T
C1849      N1858   1.157       .  T
C1850      N1856   1.157       .  T
C1859      C1860   1.413       .  A
C1859      C1864   1.418       .  A
C1859      C1877   1.448       .  S
C1860      C1865   1.506       .  S
C1860      C1861   1.412       .  A
C1861      C1862   1.410       .  A
C1862      C1863   1.416       .  A
C1863      C1864   1.411       .  A
C1864      C1867   1.448       .  S
C1865      C1868   1.413       .  A
C1865      C1872   1.413       .  A
C1866      N1883   1.157       .  T
C1867      N1885   1.157       .  T
C1868      C1869   1.418       .  A
C1868      C1873   1.449       .  S
C1869      C1870   1.414       .  A
C1869      C1875   1.448       .  S
C1870      C1871   1.416       .  A
C1871      C1872   1.409       .  A
C1871      C1874   1.453       .  S
C1872      C1876   1.452       .  S
C1873      N1880   1.157       .  T
C1874      N1881   1.157       .  T
C1875      N1879   1.157       .  T
C1876      N1882   1.157       .  T
C1877      N1886   1.157       .  T
C1878      N1884   1.157       .  T
C1887      C1888   1.413       .  A
C1887      C1892   1.411       .  A
C1887      C1905   1.451       .  S
C1888      C1893   1.496       .  S
C1888      C1889   1.411       .  A
C1889      C1890   1.410       .  A
C1889      C1894   1.452       .  S
C1890      C1891   1.415       .  A
C1890      C1906   1.451       .  S
C1891      C1892   1.412       .  A
C1892      C1895   1.451       .  S
C1893      C1896   1.410       .  A
C1893      C1900   1.409       .  A
C1894      N1911   1.157       .  T
C1895      N1913   1.157       .  T
C1896      C1897   1.412       .  A
C1896      C1901   1.451       .  S
C1897      C1898   1.415       .  A
C1898      C1899   1.413       .  A
C1899      C1900   1.408       .  A
C1899      C1902   1.446       .  S
C1900      C1904   1.452       .  S
C1901      N1908   1.157       .  T
C1902      N1909   1.157       .  T
C1903      N1907   1.157       .  T
C1904      N1910   1.157       .  T
C1905      N1914   1.157       .  T
C1906      N1912   1.157       .  T
C1915      C1916   1.409       .  A
C1915      C1920   1.408       .  A
C1915      C1933   1.451       .  S
C1916      C1921   1.491       .  S
C1916      C1917   1.409       .  A
C1917      C1918   1.409       .  A
C1917      C1922   1.452       .  S
C1918      C1919   1.413       .  A
C1918      C1934   1.447       .  S
C1919      C1920   1.415       .  A
C1920      C1923   1.451       .  S
C1921      C1924   1.411       .  A
C1921      C1928   1.409       .  A
C1922      N1939   1.157       .  T
C1923      N1941   1.157       .  T
C1924      C1925   1.407       .  A
C1924      C1929   1.452       .  S
C1925      C1926   1.414       .  A
C1925      C1931   1.452       .  S
C1926      C1927   1.413       .  A
C1927      C1928   1.410       .  A
C1927      C1930   1.450       .  S
C1928      C1932   1.450       .  S
C1929      N1936   1.157       .  T
C1930      N1937   1.157       .  T
C1931      N1935   1.157       .  T
C1932      N1938   1.157       .  T
C1933      N1942   1.157       .  T
C1934      N1940   1.157       .  T
C1943      C1944   1.407       .  A
C1943      C1961   1.451       .  S
C1944      C1949   1.493       .  S
C1944      C1945   1.407       .  A
C1945      C1946   1.409       .  A
C1945      C1950   1.451       .  S
C1946      C1947   1.416       .  A
C1946      C1962   1.450       .  S
C1948      C1951   1.447       .  S
C1949      C1952   1.409       .  A
C1949      C1956   1.413       .  A
C1950      N1967   1.157       .  T
C1951      N1969   1.156       .  T
C1952      C1953   1.413       .  A
C1952      C1957   1.449       .  S
C1953      C1954   1.413       .  A
C1953      C1959   1.450       .  S
C1954      C1955   1.407       .  A
C1955      C1956   1.405       .  A
C1955      C1958   1.449       .  S
C1956      C1960   1.453       .  S
C1957      N1964   1.157       .  T
C1958      N1965   1.156       .  T
C1959      N1963   1.157       .  T
C1960      N1966   1.157       .  T
C1961      N1970   1.157       .  T
C1962      N1968   1.157       .  T
C1971      C1972   1.414       .  A
C1971      C1976   1.415       .  A
C1971      C1989   1.450       .  S
C1972      C1977   1.502       .  S
C1972      C1973   1.411       .  A
C1973      C1974   1.413       .  A
C1973      C1978   1.450       .  S
C1974      C1975   1.412       .  A
C1974      C1990   1.448       .  S
C1975      C1976   1.412       .  A
C1976      C1979   1.450       .  S
C1977      C1980   1.410       .  A
C1977      C1984   1.413       .  A
C1978      N1995   1.157       .  T
C1979      N1997   1.157       .  T
C1980      C1981   1.409       .  A
C1980      C1985   1.450       .  S
C1981      C1982   1.411       .  A
C1981      C1987   1.447       .  S
C1982      C1983   1.408       .  A
C1983      C1984   1.416       .  A
C1983      C1986   1.445       .  S
C1984      C1988   1.449       .  S
C1985      N1992   1.157       .  T
C1986      N1993   1.157       .  T
C1987      N1991   1.157       .  T
C1988      N1994   1.157       .  T
C1989      N1998   1.157       .  T
C1990      N1996   1.156       .  T
C1999      C2000   1.404       .  A
C1999      C2004   1.407       .  A
C1999      C2017   1.451       .  S
C2000      C2005   1.489   1_556  S
C2001      C2002   1.408       .  A
C2001      C2006   1.453       .  S
C2002      C2018   1.447       .  S
C2003      C2004   1.423       .  A
C2004      C2007   1.452       .  S
C2005      C2012   1.408       .  A
C2006      N2023   1.157       .  T
C2007      N2025   1.157       .  T
C2008      C2009   1.411       .  A
C2008      C2013   1.451       .  S
C2009      C2015   1.448       .  S
C2010      C2011   1.416       .  A
C2011      C2012   1.403       .  A
C2011      C2014   1.453       .  S
C2012      C2016   1.453       .  S
C2013      N2020   1.157       .  T
C2014      N2021   1.157       .  T
C2015      N2019   1.157       .  T
C2016      N2022   1.157       .  T
C2017      N2026   1.157       .  T
C2018      N2024   1.157       .  T
C2027      C2028   1.413       .  A
C2027      C2032   1.408       .  A
C2027      C2045   1.452       .  S
C2028      C2033   1.493       .  S
C2028      C2029   1.410       .  A
C2029      C2030   1.411       .  A
C2029      C2034   1.451       .  S
C2030      C2031   1.415       .  A
C2030      C2046   1.451       .  S
C2031      C2032   1.410       .  A
C2032      C2035   1.451   1_565  S
C2033      C2036   1.413       .  A
C2033      C2040   1.409       .  A
C2034      N2051   1.157       .  T
C2035      N2053   1.157       .  T
C2036      C2037   1.413       .  A
C2036      C2041   1.449       .  S
C2037      C2038   1.408       .  A
C2037      C2043   1.446       .  S
C2038      C2039   1.411       .  A
C2039      C2040   1.402       .  A
C2039      C2042   1.451       .  S
C2040      C2044   1.451       .  S
C2041      N2048   1.157       .  T
C2042      N2049   1.157       .  T
C2043      N2047   1.157       .  T
C2044      N2050   1.157       .  T
C2045      N2054   1.157       .  T
C2046      N2052   1.157       .  T
C2055      C2056   1.408       .  A
C2055      C2060   1.408       .  A
C2055      C2073   1.450   1_565  S
C2056      C2061   1.484       .  S
C2056      C2057   1.408       .  A
C2057      C2058   1.404       .  A
C2057      C2062   1.452       .  S
C2058      C2059   1.412       .  A
C2058      C2074   1.451       .  S
C2059      C2060   1.411       .  A
C2060      C2063   1.448       .  S
C2061      C2064   1.408       .  A
C2061      C2068   1.410       .  A
C2062      N2079   1.157       .  T
C2063      N2081   1.157       .  T
C2064      C2065   1.410       .  A
C2064      C2069   1.450       .  S
C2065      C2066   1.413       .  A
C2065      C2071   1.450       .  S
C2066      C2067   1.412       .  A
C2067      C2068   1.401       .  A
C2067      C2070   1.452       .  S
C2068      C2072   1.453       .  S
C2069      N2076   1.157       .  T
C2070      N2077   1.157       .  T
C2071      N2075   1.157   1_565  T
C2072      N2078   1.157       .  T
C2073      N2082   1.157       .  T
C2074      N2080   1.157       .  T
C2083      C2084   1.409       .  A
C2083      C2088   1.413       .  A
C2084      C2089   1.504       .  S
C2084      C2085   1.406       .  A
C2085      C2086   1.417       .  A
C2085      C2090   1.450       .  S
C2086      C2087   1.420       .  A
C2086      C2102   1.444       .  S
C2087      C2088   1.418       .  A
C2088      C2091   1.448       .  S
C2089      C2092   1.415       .  A
C2089      C2096   1.407       .  A
C2090      N2107   1.157       .  T
C2091      N2109   1.157       .  T
C2092      C2093   1.415       .  A
C2092      C2097   1.449       .  S
C2093      C2094   1.409       .  A
C2093      C2099   1.449       .  S
C2095      C2098   1.451       .  S
C2097      N2104   1.157       .  T
C2098      N2105   1.157       .  T
C2099      N2103   1.157       .  T
C2100      N2106   1.157       .  T
C2101      N2110   1.157       .  T
C2102      N2108   1.156       .  T
C2111      C2112   1.409       .  A
C2111      C2116   1.411   1_565  A
C2111      C2129   1.450       .  S
C2112      C2117   1.489       .  S
C2112      C2113   1.414       .  A
C2113      C2114   1.403       .  A
C2113      C2118   1.453       .  S
C2114      C2115   1.407       .  A
C2114      C2130   1.452       .  S
C2115      C2116   1.412   1_565  A
C2116      C2119   1.450       .  S
C2117      C2120   1.408       .  A
C2117      C2124   1.405       .  A
C2118      N2135   1.157       .  T
C2119      N2137   1.157       .  T
C2120      C2121   1.410       .  A
C2120      C2125   1.451   1_565  S
C2121      C2122   1.416       .  A
C2121      C2127   1.449       .  S
C2122      C2123   1.415       .  A
C2123      C2124   1.406       .  A
C2123      C2126   1.447       .  S
C2124      C2128   1.453       .  S
C2125      N2132   1.157       .  T
C2126      N2133   1.156       .  T
C2127      N2131   1.157       .  T
C2128      N2134   1.157       .  T
C2129      N2138   1.157   1_565  T
C2130      N2136   1.157       .  T
C2139      C2140   1.413       .  A
C2139      C2144   1.417       .  A
C2139      C2157   1.449       .  S
C2140      C2145   1.506       .  S
C2140      C2141   1.414       .  A
C2141      C2142   1.414       .  A
C2141      C2146   1.451       .  S
C2142      C2143   1.411       .  A
C2142      C2158   1.450   1_565  S
C2143      C2144   1.415       .  A
C2144      C2147   1.450       .  S
C2145      C2148   1.411       .  A
C2145      C2152   1.415       .  A
C2146      N2163   1.157       .  T
C2147      N2165   1.157       .  T
C2148      C2149   1.410       .  A
C2148      C2153   1.450       .  S
C2149      C2150   1.413       .  A
C2150      C2151   1.408       .  A
C2151      C2152   1.418       .  A
C2151      C2154   1.445       .  S
C2152      C2156   1.448       .  S
C2153      N2160   1.157       .  T
C2154      N2161   1.157       .  T
C2155      N2159   1.157       .  T
C2156      N2162   1.157       .  T
C2157      N2166   1.157       .  T
C2158      N2164   1.157       .  T
