geometry optimzed in LAMMPS
_audit_creation_date              2020-12-01 
_audit_creation_method            'lammps2cif' 
_symmetry_space_group_name_H-M    'P1' 
_symmetry_Int_Tables_number       1 
_symmetry_cell_setting            triclinic 
loop_ 
_symmetry_equiv_pos_as_xyz 
  x,y,z 
_cell_length_a                    37.4392259 
_cell_length_b                    39.263409074041476 
_cell_length_c                    39.20525518064818 
_cell_angle_alpha                 92.8629719187256 
_cell_angle_beta                  89.32148880892554 
_cell_angle_gamma                 89.69335388137999 
loop_ 
_atom_site_label 
_atom_site_type_symbol 
_atom_site_fract_x 
_atom_site_fract_y 
_atom_site_fract_z 
_atom_site_charge 
C1          C  0.07986063  0.10481196  0.11069844     0.86400
C2          C  0.10841287  0.12442853  0.09080897    -0.53800
C3          C  0.12917025  0.14554465  0.10953713     0.09300
C4          C  0.11992024  0.14412518  0.14888737     0.20300
C5          C  0.10242404  0.08511222  0.13630416    -0.54500
C6          C  0.12415846  0.10437675  0.15626961     0.09500
C7          C  0.05802356  0.13179643  0.13236258    -0.54100
C8          C  0.07795717  0.15355524  0.15237413     0.10000
H9          H  0.11270899  0.12181593  0.06338572     0.14500
H10         H  0.13724330  0.16113576  0.16486633     0.00300
H11         H  0.10457204  0.05767132  0.13638768     0.14800
H12         H  0.02932091  0.13473539  0.13028227     0.14600
C13         C  0.06187943  0.25407324  0.20013025     0.29900
C14         C  0.06267851  0.18820376  0.16998459     0.29900
C15         C  0.07855215  0.22628360  0.21975667    -0.06300
C16         C  0.02262346  0.23765584  0.19381538    -0.07000
C17         C  0.07787702  0.24929294  0.16452630    -0.06900
C18         C  0.07952935  0.19339888  0.20468354    -0.06300
C19         C  0.02310666  0.20381664  0.17776703    -0.07000
C20         C  0.07803617  0.21625516  0.14955288    -0.06900
C21         C  0.07792540  0.17184922  0.23095142    -0.32300
N22         N  0.07757026  0.19000232  0.26089542     0.14200
C23         C  0.07536296  0.22302655  0.25421659    -0.32300
H24         H  0.06781358  0.24321875  0.27269473     0.16100
C25         C  0.48667358  0.19473811  0.17318492    -0.31300
N26         N  0.46390018  0.22029892  0.18594069     0.12900
C27         C  0.48579698  0.24619004  0.19862434    -0.31300
C28         C  0.07377289  0.21929786  0.11522288    -0.31600
N29         N  0.07374781  0.25232983  0.10823198     0.13400
H30         H  0.06718376  0.19874048  0.09703220     0.16000
C31         C  0.07379795  0.27053490  0.13817733    -0.31600
H32         H  0.06436823  0.29637336  0.14091377     0.16000
H33         H  0.47588384  0.27010561  0.21003486     0.16000
H34         H  0.07039764  0.14564456  0.22831688     0.16100
H35         H  0.47761180  0.17084052  0.16149543     0.16000
C36         C  0.07742784  0.33654539  0.26046798     0.86400
C37         C  0.10538440  0.31580679  0.28012106    -0.53800
C38         C  0.12714112  0.29531186  0.26103205     0.09300
C39         C  0.11890276  0.29780242  0.22175466     0.20300
C40         C  0.10085967  0.35676764  0.23597768    -0.54500
C41         C  0.12336098  0.33783738  0.21577698     0.09500
C42         C  0.05638152  0.31004549  0.23837038    -0.54100
C43         C  0.07688118  0.28864373  0.21784540     0.10000
H44         H  0.10902210  0.31717476  0.30755112     0.14500
H45         H  0.13676704  0.28114620  0.20535178     0.00300
H46         H  0.10252530  0.38431490  0.23699698     0.14800
H47         H  0.02773344  0.30678889  0.24102621     0.14600
C48         C  0.15457082  0.08738324  0.17726403     0.29900
C49         C  0.21388643  0.07558681  0.21523409     0.29900
C50         C  0.15291758  0.10023565  0.21483705    -0.06300
C51         C  0.16419857  0.04739226  0.18153366    -0.07000
C52         C  0.19042544  0.10156320  0.16495502    -0.06900
C53         C  0.18313017  0.09420327  0.23381072    -0.06300
C54         C  0.19523482  0.04222283  0.20121733    -0.07000
C55         C  0.21971626  0.09557720  0.18363360    -0.06900
C56         C  0.17288327  0.09465370  0.26756515    -0.32300
N57         N  0.13800543  0.10299450  0.27068966     0.14200
C58         C  0.12528902  0.10316365  0.23841332    -0.32300
H59         H  0.09747766  0.10046157  0.23246114     0.16100
C60         C  0.19966727  0.00717486  0.20458538    -0.31300
N61         N  0.17277736  0.48952549  0.18877933     0.12900
C62         C  0.15125950  0.01357671  0.17419481    -0.31300
C63         C  0.24890348  0.10810703  0.16657173    -0.31600
N64         N  0.23834306  0.12458235  0.13874107     0.13400
H65         H  0.27581051  0.10117768  0.17194975     0.16000
C66         C  0.20288324  0.11600091  0.13615137    -0.31600
H67         H  0.18797886  0.11083407  0.11359800     0.16000
H68         H  0.12801481  0.50712863  0.15915651     0.16000
H69         H  0.18923342  0.08662765  0.28817887     0.16100
H70         H  0.22107414  0.49491815  0.21755620     0.16000
C71         C  0.31299773  0.13858919  0.07269198     0.86400
C72         C  0.28480939  0.11983856  0.09413902    -0.53800
C73         C  0.26289085  0.13983960  0.11394282     0.09300
C74         C  0.27107777  0.17887301  0.10935385     0.20300
C75         C  0.28982693  0.16170895  0.05083511    -0.54500
C76         C  0.26736852  0.18319926  0.06876421     0.09500
C77         C  0.33349892  0.16219326  0.09855170    -0.54100
C78         C  0.31268209  0.18339250  0.11898062     0.10000
H79         H  0.28229894  0.09229561  0.09407072     0.14500
H80         H  0.25297707  0.19584887  0.12516783     0.00300
H81         H  0.28776004  0.15858084  0.02337070     0.14800
H82         H  0.36208318  0.15997083  0.10225224     0.14600
C83         C  0.08751890  0.14932718  0.34507189     0.86400
C84         C  0.10468210  0.11801462  0.32423967    -0.53800
C85         C  0.12512043  0.12662680  0.29738426     0.09300
C86         C  0.12879201  0.16480274  0.29475588     0.20300
C87         C  0.11954117  0.17110956  0.35672306    -0.54500
C88         C  0.14163590  0.17863721  0.33040197     0.09500
C89         C  0.06900392  0.17065015  0.31832350    -0.54100
C90         C  0.09048563  0.17740281  0.29180052     0.10000
H91         H  0.10041909  0.09151354  0.32919178     0.14500
H92         H  0.14591618  0.17165342  0.27280762     0.00300
H93         H  0.12359344  0.18090385  0.38245918     0.14800
H94         H  0.04107236  0.17822260  0.31912378     0.14600
C95         C  0.32689129  0.20285354  0.15305986     0.29900
C96         C  0.32597196  0.23676861  0.21726505     0.29900
C97         C  0.31085195  0.18416475  0.18245239    -0.06300
C98         C  0.36610392  0.21102840  0.16871735    -0.07000
C99         C  0.31016975  0.23825501  0.15584096    -0.06900
C100        C  0.31033226  0.20095563  0.21471797    -0.06300
C101        C  0.36550113  0.22901009  0.20166142    -0.07000
C102        C  0.31002124  0.25516120  0.18795002    -0.06900
C103        C  0.31495513  0.17566431  0.23749634    -0.32300
N104        N  0.31584449  0.14457426  0.22119253     0.14200
C105        C  0.31556469  0.14997884  0.18760347    -0.32300
H106        H  0.32269552  0.13084057  0.16787041     0.16100
C107        C  0.40184964  0.23421341  0.21055019    -0.31300
N108        N  0.42474352  0.22012497  0.18566729     0.12900
C109        C  0.40297668  0.20588244  0.16047200    -0.31300
C110        C  0.31379926  0.28932479  0.18246038    -0.31600
N111        N  0.31356004  0.29439626  0.14881692     0.13400
H112        H  0.32075753  0.30861459  0.20182776     0.16000
C113        C  0.31336617  0.26328951  0.13265520    -0.31600
H114        H  0.32157994  0.25884616  0.10654970     0.16000
H115        H  0.41302387  0.19292842  0.13729558     0.16000
H116        H  0.32391905  0.17997671  0.26321778     0.16100
H117        H  0.41077168  0.24701008  0.23396774     0.16000
C118        C  0.29835225  0.37458929  0.10021596     0.86400
C119        C  0.28325913  0.34993846  0.07186573    -0.53800
C120        C  0.26368237  0.32451218  0.08406906     0.09300
C121        C  0.26057571  0.32559873  0.12282588     0.20300
C122        C  0.26688461  0.38734940  0.12245870    -0.54500
C123        C  0.24666478  0.36196967  0.13395341     0.09500
C124        C  0.31978738  0.35020042  0.12276895    -0.54100
C125        C  0.29942833  0.32433278  0.13415051     0.10000
H126        H  0.28913973  0.35133913  0.04477262     0.14500
H127        H  0.24431297  0.30434235  0.13227888     0.00300
H128        H  0.26192601  0.41397095  0.12892972     0.14800
H129        H  0.34833791  0.35089882  0.12688504     0.14600
C130        C  0.29725912  0.06577943  0.27127113     0.86400
C131        C  0.28183041  0.09149498  0.29880647    -0.53800
C132        C  0.26325358  0.11703185  0.28577321     0.09300
C133        C  0.26139111  0.11516998  0.24700895     0.20300
C134        C  0.26604216  0.05338229  0.24927838    -0.54500
C135        C  0.24689559  0.07908313  0.23677155     0.09500
C136        C  0.32001752  0.08889366  0.24816091    -0.54100
C137        C  0.30061036  0.11502261  0.23584728     0.10000
H138        H  0.28645722  0.09048504  0.32604252     0.14500
H139        H  0.24588141  0.13668035  0.23705807     0.00300
H140        H  0.25980432  0.02674445  0.24483698     0.14800
H141        H  0.34872733  0.08737366  0.24457824     0.14600
C142        C  0.15423641  0.35501307  0.19527797     0.29900
C143        C  0.21376940  0.36618917  0.15625197     0.29900
C144        C  0.15298331  0.34234251  0.15783425    -0.06300
C145        C  0.16397294  0.39494540  0.19100023    -0.07000
C146        C  0.19002387  0.34035499  0.20697255    -0.06900
C147        C  0.18305451  0.34826564  0.13831690    -0.06300
C148        C  0.19516931  0.39975577  0.17076880    -0.07000
C149        C  0.21943671  0.34599093  0.18764510    -0.06900
C150        C  0.17331237  0.34639871  0.10472572    -0.32300
N151        N  0.13886948  0.33694103  0.10258149     0.14200
C152        C  0.12575010  0.33717088  0.13499601    -0.32300
H153        H  0.09788998  0.33762691  0.14153644     0.16100
C154        C  0.19958502  0.43471561  0.16714284    -0.31300
N155        N  0.17271235  0.45271652  0.18352742     0.12900
C156        C  0.15106237  0.42894347  0.19854968    -0.31300
C157        C  0.24875284  0.33399114  0.20446014    -0.31600
N158        N  0.23826876  0.31823856  0.23288850     0.13400
H159        H  0.27564268  0.34069201  0.19835472     0.16000
C160        C  0.20265488  0.32698486  0.23605934    -0.31600
H161        H  0.18766629  0.33294872  0.25895492     0.16000
H162        H  0.12771619  0.43566421  0.21399119     0.16000
H163        H  0.18967473  0.35372435  0.08356470     0.16100
H164        H  0.22089337  0.44665795  0.15346352     0.16000
C165        C  0.09117971  0.29497418  0.02598939     0.86400
C166        C  0.10811920  0.32473166  0.04833535    -0.53800
C167        C  0.12611379  0.31438046  0.07551932     0.09300
C168        C  0.12833829  0.27594146  0.07702798     0.20300
C169        C  0.12274798  0.27182694  0.01495713    -0.54500
C170        C  0.14307902  0.26281212  0.04148474     0.09500
C171        C  0.06982298  0.27375190  0.05119920    -0.54100
C172        C  0.08930361  0.26481832  0.07808640     0.10000
H173        H  0.10538880  0.35160282  0.04402453     0.14500
H174        H  0.14388382  0.26776410  0.09920317     0.00300
H175        H  0.12745360  0.26199510  0.98940353     0.14800
H176        H  0.04162502  0.26782837  0.04919587     0.14600
C177        C  0.31165328  0.30104250  0.29822135     0.86400
C178        C  0.28579361  0.32111412  0.27582861    -0.53800
C179        C  0.26274683  0.30210208  0.25686687     0.09300
C180        C  0.26970417  0.26267362  0.26108086     0.20300
C181        C  0.28813049  0.27793297  0.31949599    -0.54500
C182        C  0.26520857  0.25796649  0.30144521     0.09500
C183        C  0.33229588  0.27748321  0.27146692    -0.54100
C184        C  0.31139432  0.25672937  0.25128317     0.10000
H185        H  0.28613052  0.34868225  0.27452360     0.14500
H186        H  0.25149384  0.24644850  0.24523616     0.00300
H187        H  0.28811909  0.27914227  0.34721942     0.14800
H188        H  0.36041945  0.28007787  0.26563673     0.14600
C189        C  0.17674170  0.24152266  0.03908168     0.29900
C190        C  0.23678545  0.20363599  0.05073857     0.29900
C191        C  0.17124032  0.20996612  0.05866610    -0.06300
C192        C  0.19673132  0.22859369  0.00588802    -0.07000
C193        C  0.20633863  0.25987748  0.05817974    -0.06900
C194        C  0.20070716  0.19111093  0.06437250    -0.06300
C195        C  0.22810798  0.20884341  0.01059510    -0.07000
C196        C  0.23705865  0.24095356  0.06412897    -0.06900
C197        C  0.18882547  0.16420137  0.08202135    -0.32300
N198        N  0.15371974  0.16852471  0.09225344     0.14200
C199        C  0.14266775  0.19514507  0.07429965    -0.32300
H200        H  0.11562382  0.20114255  0.06885778     0.16100
C201        C  0.24263427  0.20438328  0.47655684    -0.31300
N202        N  0.22201460  0.22140748  0.45343508     0.12900
C203        C  0.19443295  0.23587229  0.47167679    -0.31300
C204        C  0.26430079  0.26434261  0.06532016    -0.31600
N205        N  0.25097565  0.29628249  0.06337282     0.13400
H206        H  0.29219046  0.25816869  0.06218591     0.16000
C207        C  0.21614365  0.29317969  0.05644809    -0.31600
H208        H  0.19979685  0.31314861  0.04685628     0.16000
H209        H  0.17430302  0.25107208  0.46014226     0.16000
H210        H  0.20412037  0.14133025  0.07919000     0.16100
H211        H  0.26651504  0.18996168  0.46950234     0.16000
C212        C  0.17491494  0.20003555  0.33249838     0.29900
C213        C  0.23454614  0.23769346  0.31940000     0.29900
C214        C  0.16908632  0.23161400  0.31287790    -0.06300
C215        C  0.19477871  0.21297279  0.36519263    -0.07000
C216        C  0.20478978  0.18167677  0.31279268    -0.06900
C217        C  0.19842526  0.25018386  0.30630141    -0.06300
C218        C  0.22599642  0.23250683  0.35964086    -0.07000
C219        C  0.23516055  0.20059980  0.30590635    -0.06900
C220        C  0.18673580  0.27625686  0.28755838    -0.32300
N221        N  0.15168001  0.27215193  0.27804973     0.14200
C222        C  0.14058845  0.24624057  0.29717988    -0.32300
H223        H  0.11349636  0.24068369  0.30339336     0.16100
C224        C  0.24155426  0.23576031  0.39289917    -0.31300
N225        N  0.22163513  0.21836527  0.41651863     0.12900
C226        C  0.19343510  0.20473727  0.39921693    -0.31300
C227        C  0.26267513  0.17740843  0.30348641    -0.31600
N228        N  0.24977757  0.14553680  0.30586560     0.13400
H229        H  0.29045707  0.18369315  0.30545291     0.16000
C230        C  0.21500630  0.14839352  0.31397741    -0.31600
H231        H  0.19900832  0.12825391  0.32372214     0.16000
H232        H  0.17331333  0.18947951  0.41100726     0.16000
H233        H  0.20210918  0.29868994  0.28978507     0.16100
H234        H  0.26571852  0.24957477  0.39911556     0.16000
O235        O  0.53005758  0.99227030  0.50699414    -0.75400
O236        O  0.07666372  0.50625643  0.47685470    -0.54300
C237        C  0.05831998  0.00935852  0.50431016     0.78400
O238        O  0.41658704  0.40967446  0.50313762    -0.60000
O239        O  0.37276417  0.43925669  0.47742544    -0.53000
C240        C  0.38475442  0.42192755  0.50167308     0.70400
O241        O  0.53174871  0.42870075  0.49685576    -0.74500
O242        O  0.07845972  0.42994319  0.46257827    -0.55100
C243        C  0.06040758  0.41491023  0.48509836     0.76400
O244        O  0.41392561  0.02089734  0.51468966    -0.59700
O245        O  0.37525211  0.01395136  0.47067969    -0.52800
C246        C  0.38460276  0.02719637  0.49991600     0.73000
Zr247      Zr  0.47334007  0.01471108  0.49155909     2.54700
O248        O  0.47618493  0.02717501  0.05290253    -0.80200
O249        O  0.47823024  0.07679059  0.49643153    -0.93600
Zr250      Zr  0.47424450  0.41351851  0.47367852     2.64700
O251        O  0.46980144  0.36812804  0.01397800    -0.98600
O252        O  0.48307548  0.35648402  0.44735094    -0.80700
O253        O  0.50837834  0.46425933  0.48267844    -0.84000
O254        O  0.44048819  0.46442213  0.48411047    -2.18700
O255        O  0.41046633  0.02834271  0.36798724    -0.67400
O256        O  0.36899263  0.99583566  0.39404976    -0.52000
C257        C  0.37960213  0.01421113  0.36988536     0.71400
O258        O  0.53061393  0.45381492  0.36165893    -0.60300
O259        O  0.07900215  0.44105889  0.38808987    -0.52300
C260        C  0.05931868  0.43695526  0.36204766     0.73200
O261        O  0.41694080  0.41342601  0.35679064    -0.71700
O262        O  0.37753603  0.42256032  0.40103770    -0.50400
C263        C  0.38777684  0.40747364  0.37261966     0.74500
O264        O  0.52848784  0.01683844  0.37259441    -0.67000
O265        O  0.07579734  0.51764222  0.40491438    -0.54200
C266        C  0.05545495  0.03259718  0.38454999     0.72900
Zr267      Zr  0.46917370  0.02821032  0.39476999     2.77500
O268        O  0.46235583  0.07002134  0.35125137    -0.97800
O269        O  0.47334129  0.08605833  0.41990171    -0.78600
Zr270      Zr  0.47569308  0.42751482  0.37650323     2.70100
O271        O  0.47492126  0.41858500  0.31464512    -0.79900
O272        O  0.49102261  0.36721040  0.37043870    -0.98900
Zr273      Zr  0.54599106  0.47267982  0.43310127     2.21500
Zr274      Zr  0.40435945  0.46894718  0.43522248     2.11100
O275        O  0.43901676  0.47543504  0.38501879    -2.47600
O276        O  0.50704285  0.47962840  0.38470024    -0.79600
O277        O  0.43537295  0.02129289  0.44434733    -0.71800
O278        O  0.51136480  0.42027689  0.42475950    -2.32800
O279        O  0.50797903  0.02355300  0.44237256    -2.29000
O280        O  0.43936170  0.41871151  0.42513303    -0.73600
H281        H  0.42872290  0.46518218  0.00591602     0.78400
H282        H  0.52706461  0.40085658  0.42108472     0.79500
H283        H  0.42660660  0.47313156  0.36381765     0.81700
H284        H  0.52246387  0.04365443  0.44577954     0.79300
H285        H  0.50874597  0.35121614  0.44983468     0.42300
H286        H  0.47205068  0.35585449  0.38337260     0.41300
H287        H  0.47452726  0.44188054  0.30607730     0.41000
H288        H  0.45435179  0.05743262  0.33029910     0.38900
H289        H  0.44907967  0.09125350  0.42914741     0.42100
H290        H  0.50007533  0.08320517  0.48403395     0.36800
H291        H  0.47673054  0.50448351  0.06282920     0.43000
H292        H  0.46127969  0.37859949  0.03601629     0.39400
H293        H  0.44180724  0.08472096  0.35855723     0.44300
H294        H  0.48309148  0.08264074  0.02075983     0.43000
H295        H  0.45001467  0.35318269  0.00607832     0.43200
H296        H  0.48572880  0.36068334  0.34632978     0.43500
C297        C  0.33223810  0.32546190  0.32194323    -0.06200
C298        C  0.31277259  0.35322467  0.33747847    -0.17300
C299        C  0.32978567  0.38070165  0.35391041     0.11000
C300        C  0.36693241  0.37943180  0.35743959    -0.06100
C301        C  0.38582903  0.34976053  0.34644802    -0.17300
C302        C  0.36882838  0.32229213  0.32986024     0.11000
S303        S  0.30304081  0.41740928  0.36712671    -0.32300
S304        S  0.39443319  0.28331660  0.32446685    -0.32300
H305        H  0.36522622  0.26196443  0.33055310     0.29000
H306        H  0.32851734  0.44136929  0.35745089     0.29000
H307        H  0.28403119  0.35463890  0.33489186     0.19600
H308        H  0.41411755  0.34765435  0.35159537     0.19600
C309        C  0.06681477  0.37930487  0.49179132    -0.06200
C310        C  0.08728714  0.35868629  0.46880518    -0.17300
C311        C  0.08682957  0.32333141  0.47092355     0.11000
C312        C  0.06838935  0.30920513  0.99843577    -0.06100
C313        C  0.04042212  0.32893655  0.01351280    -0.17300
C314        C  0.04520872  0.36397284  0.01617875     0.11000
S315        S  0.10807188  0.29734364  0.43733973    -0.32300
S316        S  0.03246519  0.38606860  0.05613375    -0.32300
H317        H  0.06182328  0.40820182  0.05608841     0.29000
H318        H  0.08823688  0.26795136  0.44395131     0.29000
H319        H  0.10306989  0.36995928  0.44913401     0.19600
H320        H  0.02346379  0.31839716  0.03280485     0.19600
C321        C  0.31519394  0.03709055  0.28822518    -0.06200
C322        C  0.35116809  0.03003991  0.28141224    -0.17300
C323        C  0.37228146  0.01823743  0.30699715     0.11000
C324        C  0.35718191  0.01571349  0.34002063    -0.06100
C325        C  0.32012629  0.01400564  0.34373644    -0.17300
C326        C  0.29857007  0.02268635  0.31684330     0.11000
S327        S  0.41729509  0.00557469  0.29563627    -0.32300
S328        S  0.25052127  0.02056172  0.32178146    -0.32300
H329        H  0.25044773  0.00126642  0.35109354     0.29000
H330        H  0.41241348  0.97267328  0.30741562     0.29000
H331        H  0.36329127  0.03511056  0.25703769     0.19600
H332        H  0.30820248  0.00808339  0.36801811     0.19600
C333        C  0.31755310  0.40332619  0.08449793    -0.06200
C334        C  0.35371658  0.40812101  0.09109918    -0.17300
C335        C  0.37636243  0.41703727  0.06494273     0.11000
C336        C  0.36212925  0.41995486  0.03184380    -0.06100
C337        C  0.32525564  0.42400544  0.52838751    -0.17300
C338        C  0.30272754  0.41816382  0.05561965     0.11000
S339        S  0.42215525  0.42512296  0.07600129    -0.32300
S340        S  0.25543831  0.42316970  0.54919390    -0.32300
H341        H  0.24983739  0.44142006  0.08054284     0.29000
H342        H  0.42225018  0.45722224  0.06182132     0.29000
H343        H  0.36481124  0.40280017  0.11562212     0.19600
H344        H  0.31380226  0.43039158  0.50424767     0.19600
C345        C  0.05741710  0.06903626  0.38082298    -0.06200
C346        C  0.07351088  0.09014717  0.40614273    -0.17300
C347        C  0.07511529  0.12526413  0.40190913     0.11000
C348        C  0.06116221  0.13805649  0.37185424    -0.06100
C349        C  0.03362879  0.11893898  0.35622853    -0.17300
C350        C  0.03802758  0.08382937  0.35473872     0.11000
S351        S  0.09144288  0.15382095  0.43552228    -0.32300
S352        S  0.02921004  0.06140132  0.31415420    -0.32300
H353        H  0.55736427  0.03772469  0.31606574     0.29000
H354        H  0.09629179  0.12894928  0.45969150     0.29000
H355        H  0.08490081  0.07937012  0.42848821     0.19600
H356        H  0.01879025  0.12928523  0.33559499     0.19600
C357        C  0.33723166  0.11267573  0.05345667    -0.06200
C358        C  0.34686403  0.08341543  0.07070547    -0.17300
C359        C  0.35804061  0.05370540  0.05299296     0.11000
C360        C  0.36283682  0.05365501  0.01732753    -0.06100
C361        C  0.35792698  0.08399657  0.00052357    -0.17300
C362        C  0.34684445  0.11393662  0.01847035     0.11000
S363        S  0.36595826  0.51658918  0.07734769    -0.32300
S364        S  0.35306647  0.15322524  0.99713502    -0.32300
H365        H  0.35805336  0.17352785  0.02728920     0.29000
H366        H  0.35795652  0.49276027  0.05061514     0.29000
H367        H  0.34323874  0.08287668  0.09814433     0.19600
H368        H  0.36605585  0.08516245  0.47396307     0.19600
C369        C  0.06378491  0.41024269  0.33540208    -0.02400
C370        C  0.05406334  0.41871261  0.30235368    -0.17300
C371        C  0.04789017  0.39330832  0.27716009     0.11000
C372        C  0.05426165  0.35908852  0.28448685    -0.06100
C373        C  0.05410188  0.35114575  0.31890807    -0.17300
C374        C  0.06383738  0.37588130  0.34365271     0.11000
S375        S  0.03107705  0.40541151  0.23658097    -0.32300
S376        S  0.07693443  0.36291033  0.38489551    -0.32300
H377        H  0.06768869  0.32834468  0.38018676     0.29000
H378        H  0.02248420  0.37207838  0.22481670     0.29000
H379        H  0.04964216  0.44513584  0.29662628     0.19600
H380        H  0.05324796  0.32465523  0.32531484     0.19600
C381        C  0.06529279  0.03408354  0.03173729    -0.06200
C382        C  0.05975219  0.06827087  0.02510612    -0.17300
C383        C  0.05371791  0.09232227  0.05187391     0.11000
C384        C  0.05809806  0.08247884  0.08595080    -0.06100
C385        C  0.05622668  0.04761045  0.09191100    -0.17300
C386        C  0.06299319  0.02358412  0.06548198     0.11000
S387        S  0.04418329  0.13559703  0.04098742    -0.32300
S388        S  0.06982417  0.47994441  0.07634396    -0.32300
H389        H  0.09110875  0.47060262  0.04749754     0.29000
H390        H  0.02711121  0.14508624  0.07205689     0.29000
H391        H  0.05847978  0.07594437  0.49898442     0.19600
H392        H  0.05414757  0.03905242  0.11766810     0.19600
C393        C  0.07986067  0.10481224  0.61069845     0.86400
C394        C  0.10841292  0.12442884  0.59080902    -0.53800
C395        C  0.12917036  0.14554486  0.60953729     0.09300
C396        C  0.11992031  0.14412535  0.64888750     0.20300
C397        C  0.10242402  0.08511241  0.63630415    -0.54500
C398        C  0.12415850  0.10437687  0.65626961     0.09500
C399        C  0.05802362  0.13179672  0.63236259    -0.54100
C400        C  0.07795725  0.15355544  0.65237423     0.10000
H401        H  0.11270901  0.12181634  0.56338576     0.14500
H402        H  0.13724337  0.16113587  0.66486652     0.00300
H403        H  0.10457197  0.05767151  0.63638764     0.14800
H404        H  0.02932097  0.13473576  0.63028217     0.14600
C405        C  0.06187959  0.25407337  0.70013044     0.29900
C406        C  0.06267860  0.18820394  0.66998473     0.29900
C407        C  0.07855233  0.22628375  0.71975684    -0.06300
C408        C  0.02262360  0.23765601  0.69381561    -0.07000
C409        C  0.07787714  0.24929310  0.66452647    -0.06900
C410        C  0.07952951  0.19339901  0.70468366    -0.06300
C411        C  0.02310676  0.20381684  0.67776725    -0.07000
C412        C  0.07803619  0.21625536  0.64955302    -0.06900
C413        C  0.07792554  0.17184934  0.73095156    -0.32300
N414        N  0.07757039  0.19000247  0.76089558     0.14200
C415        C  0.07536312  0.22302673  0.75421678    -0.32300
H416        H  0.06781378  0.24321894  0.77269491     0.16100
C417        C  0.48667361  0.19473835  0.67318488    -0.31300
N418        N  0.46390025  0.22029918  0.68594065     0.12900
C419        C  0.48579704  0.24619027  0.69862437    -0.31300
C420        C  0.07377277  0.21929815  0.61522304    -0.31600
N421        N  0.07374774  0.25233013  0.60823219     0.13400
H422        H  0.06718358  0.19874079  0.59703234     0.16000
C423        C  0.07379805  0.27053513  0.63817757    -0.31600
H424        H  0.06436843  0.29637362  0.64091413     0.16000
H425        H  0.47588393  0.27010586  0.71003485     0.16000
H426        H  0.07039777  0.14564466  0.72831703     0.16100
H427        H  0.47761177  0.17084080  0.66149532     0.16000
C428        C  0.07742799  0.33654558  0.76046811     0.86400
C429        C  0.10538455  0.31580703  0.78012126    -0.53800
C430        C  0.12714127  0.29531204  0.76103230     0.09300
C431        C  0.11890292  0.29780251  0.72175489     0.20300
C432        C  0.10085984  0.35676773  0.73597779    -0.54500
C433        C  0.12336116  0.33783745  0.71577709     0.09500
C434        C  0.05638168  0.31004568  0.73837055    -0.54100
C435        C  0.07688134  0.28864385  0.71784562     0.10000
H436        H  0.10902222  0.31717507  0.80755133     0.14500
H437        H  0.13676715  0.28114623  0.70535205     0.00300
H438        H  0.10252549  0.38431499  0.73699709     0.14800
H439        H  0.02773359  0.30678917  0.74102635     0.14600
C440        C  0.15457093  0.08738330  0.67726392     0.29900
C441        C  0.21388661  0.07558690  0.71523388     0.29900
C442        C  0.15291774  0.10023566  0.71483698    -0.06300
C443        C  0.16419868  0.04739232  0.68153346    -0.07000
C444        C  0.19042553  0.10156329  0.66495487    -0.06900
C445        C  0.18313037  0.09420329  0.73381059    -0.06300
C446        C  0.19523501  0.04222292  0.70121706    -0.07000
C447        C  0.21971641  0.09557733  0.68363344    -0.06900
C448        C  0.17288362  0.09465378  0.76756504    -0.32300
N449        N  0.13800578  0.10299457  0.77068967     0.14200
C450        C  0.12528926  0.10316370  0.73841336    -0.32300
H451        H  0.09747787  0.10046171  0.73246128     0.16100
C452        C  0.19966752  0.00717496  0.70458508    -0.31300
N453        N  0.17277751  0.48952554  0.68877914     0.12900
C454        C  0.15125961  0.01357672  0.67419467    -0.31300
C455        C  0.24890363  0.10810717  0.66657156    -0.31600
N456        N  0.23834316  0.12458238  0.63874086     0.13400
H457        H  0.27581067  0.10117786  0.67194959     0.16000
C458        C  0.20288333  0.11600089  0.63615115    -0.31600
H459        H  0.18797893  0.11083400  0.61359777     0.16000
H460        H  0.12801480  0.50712864  0.65915652     0.16000
H461        H  0.18923388  0.08662774  0.78817866     0.16100
H462        H  0.22107439  0.49491817  0.71755582     0.16000
C463        C  0.31299771  0.13858926  0.57269165     0.86400
C464        C  0.28480932  0.11983859  0.59413858    -0.53800
C465        C  0.26289090  0.13983962  0.61394253     0.09300
C466        C  0.27107790  0.17887305  0.60935365     0.20300
C467        C  0.28982701  0.16170917  0.55083489    -0.54500
C468        C  0.26736862  0.18319942  0.56876405     0.09500
C469        C  0.33349893  0.16219313  0.59855153    -0.54100
C470        C  0.31268222  0.18339242  0.61898049     0.10000
H471        H  0.28229884  0.09229565  0.59407011     0.14500
H472        H  0.25297722  0.19584892  0.62516763     0.00300
H473        H  0.28776010  0.15858112  0.52337048     0.14800
H474        H  0.36208316  0.15997051  0.60225213     0.14600
C475        C  0.08751910  0.14932723  0.84507196     0.86400
C476        C  0.10468229  0.11801468  0.82423970    -0.53800
C477        C  0.12512065  0.12662687  0.79738429     0.09300
C478        C  0.12879217  0.16480278  0.79475593     0.20300
C479        C  0.11954141  0.17110958  0.85672311    -0.54500
C480        C  0.14163612  0.17863723  0.83040201     0.09500
C481        C  0.06900412  0.17065024  0.81832362    -0.54100
C482        C  0.09048580  0.17740289  0.79180064     0.10000
H483        H  0.10041935  0.09151358  0.82919185     0.14500
H484        H  0.14591629  0.17165344  0.77280764     0.00300
H485        H  0.12359370  0.18090384  0.88245923     0.14800
H486        H  0.04107258  0.17822280  0.81912399     0.14600
C487        C  0.32689144  0.20285343  0.65305977     0.29900
C488        C  0.32597206  0.23676850  0.71726500     0.29900
C489        C  0.31085217  0.18416462  0.68245234    -0.06300
C490        C  0.36610406  0.21102843  0.66871726    -0.07000
C491        C  0.31016982  0.23825488  0.65584091    -0.06900
C492        C  0.31033247  0.20095549  0.71471793    -0.06300
C493        C  0.36550124  0.22901004  0.70166138    -0.07000
C494        C  0.31002132  0.25516108  0.68794998    -0.06900
C495        C  0.31495548  0.17566413  0.73749628    -0.32300
N496        N  0.31584491  0.14457410  0.72119245     0.14200
C497        C  0.31556506  0.14997872  0.68760340    -0.32300
H498        H  0.32269593  0.13084048  0.66787033     0.16100
C499        C  0.40184974  0.23421342  0.71055016    -0.31300
N500        N  0.42474361  0.22012521  0.68566719     0.12900
C501        C  0.40297684  0.20588276  0.66047183    -0.31300
C502        C  0.31379925  0.28932468  0.68246037    -0.31600
N503        N  0.31355998  0.29439614  0.64881690     0.13400
H504        H  0.32075750  0.30861448  0.70182772     0.16000
C505        C  0.31336612  0.26328939  0.63265515    -0.31600
H506        H  0.32157986  0.25884606  0.60654965     0.16000
H507        H  0.41302409  0.19292902  0.63729528     0.16000
H508        H  0.32391940  0.17997650  0.76321773     0.16100
H509        H  0.41077179  0.24700999  0.73396776     0.16000
C510        C  0.29835249  0.37458922  0.60021590     0.86400
C511        C  0.28325930  0.34993841  0.57186570    -0.53800
C512        C  0.26368243  0.32451224  0.58406906     0.09300
C513        C  0.26057580  0.32559880  0.62282587     0.20300
C514        C  0.26688484  0.38734941  0.62245866    -0.54500
C515        C  0.24666497  0.36196973  0.63395340     0.09500
C516        C  0.31978755  0.35020029  0.62276891    -0.54100
C517        C  0.29942841  0.32433272  0.63415048     0.10000
H518        H  0.28913987  0.35133905  0.54477258     0.14500
H519        H  0.24431298  0.30434246  0.63227886     0.00300
H520        H  0.26192629  0.41397097  0.62892971     0.14800
H521        H  0.34833807  0.35089859  0.62688500     0.14600
C522        C  0.29725915  0.06577928  0.77127100     0.86400
C523        C  0.28183041  0.09149484  0.79880632    -0.53800
C524        C  0.26325380  0.11703184  0.78577307     0.09300
C525        C  0.26139135  0.11517000  0.74700882     0.20300
C526        C  0.26604226  0.05338225  0.74927814    -0.54500
C527        C  0.24689578  0.07908315  0.73677133     0.09500
C528        C  0.32001769  0.08889348  0.74816087    -0.54100
C529        C  0.30061063  0.11502251  0.73584719     0.10000
H530        H  0.28645704  0.09048485  0.82604240     0.14500
H531        H  0.24588168  0.13668040  0.73705795     0.00300
H532        H  0.25980442  0.02674443  0.74483665     0.14800
H533        H  0.34872751  0.08737335  0.74457828     0.14600
C534        C  0.15423659  0.35501315  0.69527801     0.29900
C535        C  0.21376960  0.36618926  0.65625199     0.29900
C536        C  0.15298348  0.34234257  0.65783430    -0.06300
C537        C  0.16397315  0.39494546  0.69100028    -0.07000
C538        C  0.19002405  0.34035504  0.70697257    -0.06900
C539        C  0.18305468  0.34826569  0.63831695    -0.06300
C540        C  0.19516951  0.39975584  0.67076885    -0.07000
C541        C  0.21943689  0.34599107  0.68764517    -0.06900
C542        C  0.17331252  0.34639876  0.60472579    -0.32300
N543        N  0.13886961  0.33694120  0.60258155     0.14200
C544        C  0.12575027  0.33717106  0.63499607    -0.32300
H545        H  0.09789015  0.33762719  0.64153654     0.16100
C546        C  0.19958523  0.43471566  0.66714289    -0.31300
N547        N  0.17271250  0.45271657  0.68352736     0.12900
C548        C  0.15106256  0.42894351  0.69854965    -0.31300
C549        C  0.24875301  0.33399127  0.70446018    -0.31600
N550        N  0.23826892  0.31823855  0.73288847     0.13400
H551        H  0.27564285  0.34069210  0.69835473     0.16000
C552        C  0.20265503  0.32698477  0.73605931    -0.31600
H553        H  0.18766643  0.33294855  0.75895488     0.16000
H554        H  0.12771635  0.43566424  0.71399111     0.16000
H555        H  0.18967482  0.35372450  0.58356478     0.16100
H556        H  0.22089359  0.44665799  0.65346358     0.16000
C557        C  0.09117974  0.29497432  0.52598948     0.86400
C558        C  0.10811938  0.32473180  0.54833536    -0.53800
C559        C  0.12611390  0.31438059  0.57551939     0.09300
C560        C  0.12833826  0.27594162  0.57702816     0.20300
C561        C  0.12274790  0.27182692  0.51495726    -0.54500
C562        C  0.14307894  0.26281214  0.54148489     0.09500
C563        C  0.06982292  0.27375216  0.55119937    -0.54100
C564        C  0.08930354  0.26481862  0.57808661     0.10000
H565        H  0.10538908  0.35160296  0.54402446     0.14500
H566        H  0.14388372  0.26776426  0.59920340     0.00300
H567        H  0.12745353  0.26199498  0.48940369     0.14800
H568        H  0.04162497  0.26782866  0.54919597     0.14600
C569        C  0.31165348  0.30104252  0.79822126     0.86400
C570        C  0.28579373  0.32111410  0.77582857    -0.53800
C571        C  0.26274697  0.30210204  0.75686685     0.09300
C572        C  0.26970435  0.26267357  0.76108086     0.20300
C573        C  0.28813081  0.27793296  0.81949595    -0.54500
C574        C  0.26520884  0.25796647  0.80144523     0.09500
C575        C  0.33229606  0.27748328  0.77146678    -0.54100
C576        C  0.31139449  0.25672933  0.75128311     0.10000
H577        H  0.28613059  0.34868223  0.77452355     0.14500
H578        H  0.25149402  0.24644841  0.74523619     0.00300
H579        H  0.28811945  0.27914230  0.84721940     0.14800
H580        H  0.36041959  0.28007806  0.76563646     0.14600
C581        C  0.17674162  0.24152274  0.53908174     0.29900
C582        C  0.23678545  0.20363610  0.55073847     0.29900
C583        C  0.17124034  0.20996631  0.55866631    -0.06300
C584        C  0.19673105  0.22859367  0.50588801    -0.07000
C585        C  0.20633862  0.25987760  0.55817962    -0.06900
C586        C  0.20070721  0.19111110  0.56437261    -0.06300
C587        C  0.22810774  0.20884338  0.51059501    -0.07000
C588        C  0.23705868  0.24095370  0.56412875    -0.06900
C589        C  0.18882556  0.16420153  0.58202148    -0.32300
N590        N  0.15371988  0.16852496  0.59225373     0.14200
C591        C  0.14266785  0.19514535  0.57430003    -0.32300
H592        H  0.11562390  0.20114285  0.56885822     0.16100
C593        C  0.24263454  0.20438329  0.97655697    -0.31300
N594        N  0.22201489  0.22140743  0.95343513     0.12900
C595        C  0.19443321  0.23587221  0.97167680    -0.31300
C596        C  0.26430082  0.26434274  0.56532007    -0.31600
N597        N  0.25097562  0.29628259  0.56337287     0.13400
H598        H  0.29219049  0.25816887  0.56218587     0.16000
C599        C  0.21614360  0.29317981  0.55644812    -0.31600
H600        H  0.19979679  0.31314874  0.54685632     0.16000
H601        H  0.17430318  0.25107185  0.96014225     0.16000
H602        H  0.20412041  0.14133039  0.57918994     0.16100
H603        H  0.26651530  0.18996165  0.96950255     0.16000
C604        C  0.17491520  0.20003556  0.83249843     0.29900
C605        C  0.23454638  0.23769349  0.81940009     0.29900
C606        C  0.16908658  0.23161397  0.81287791    -0.06300
C607        C  0.19477894  0.21297290  0.86519269    -0.07000
C608        C  0.20479008  0.18167675  0.81279286    -0.06900
C609        C  0.19842551  0.25018387  0.80630146    -0.06300
C610        C  0.22599664  0.23250696  0.85964096    -0.07000
C611        C  0.23516081  0.20059981  0.80590651    -0.06900
C612        C  0.18673597  0.27625703  0.78755865    -0.32300
N613        N  0.15168017  0.27215211  0.77804999     0.14200
C614        C  0.14058867  0.24624064  0.79718002    -0.32300
H615        H  0.11349659  0.24068375  0.80339351     0.16100
C616        C  0.24155458  0.23576037  0.89289923    -0.31300
N617        N  0.22163550  0.21836523  0.91651866     0.12900
C618        C  0.19343544  0.20473723  0.89921693    -0.31300
C619        C  0.26267539  0.17740845  0.80348640    -0.31600
N620        N  0.24977788  0.14553678  0.80586555     0.13400
H621        H  0.29045734  0.18369321  0.80545283     0.16000
C622        C  0.21500666  0.14839349  0.81397756    -0.31600
H623        H  0.19900872  0.12825379  0.82372220     0.16000
H624        H  0.17331371  0.18947937  0.91100720     0.16000
H625        H  0.20210932  0.29869016  0.78978542     0.16100
H626        H  0.26571889  0.24957476  0.89911561     0.16000
O627        O  0.53005721  0.99226986  0.00699423    -0.75400
O628        O  0.07666413  0.50625614  0.97685464    -0.54300
C629        C  0.05832014  0.00935847  0.00430985     0.78400
O630        O  0.41658652  0.40967400  0.00313723    -0.60000
O631        O  0.37276356  0.43925631  0.97742527    -0.53000
C632        C  0.38475389  0.42192712  0.00167285     0.70400
O633        O  0.53174831  0.42870030  0.99685548    -0.74500
O634        O  0.07845944  0.42994306  0.96257840    -0.55100
C635        C  0.06040732  0.41491003  0.98509848     0.76400
O636        O  0.41392502  0.02089639  0.01469030    -0.59700
O637        O  0.37525167  0.01395134  0.97068013    -0.52800
C638        C  0.38460232  0.02719594  0.99991659     0.73000
Zr639      Zr  0.47333955  0.01471072  0.99155960     2.54700
O640        O  0.47618510  0.02717546  0.55290209    -0.80200
O641        O  0.47822937  0.07679030  0.99643226    -0.93600
Zr642      Zr  0.47424405  0.41351827  0.97367812     2.64700
O643        O  0.46980178  0.36812843  0.51397866    -0.98600
O644        O  0.48307517  0.35648372  0.94735063    -0.80700
O645        O  0.50837792  0.46425904  0.98267847    -0.84000
O646        O  0.44048771  0.46442178  0.98411054    -2.18700
O647        O  0.41046581  0.02834357  0.86798802    -0.67400
O648        O  0.36899214  0.99583610  0.89405008    -0.52000
C649        C  0.37960165  0.01421187  0.86988593     0.71400
O650        O  0.53061346  0.45381551  0.86165823    -0.60300
O651        O  0.07900246  0.44105903  0.88808995    -0.52300
C652        C  0.05931893  0.43695537  0.86204777     0.73200
O653        O  0.41694017  0.41342714  0.85679011    -0.71700
O654        O  0.37753561  0.42256064  0.90103746    -0.50400
C655        C  0.38777642  0.40747424  0.87261929     0.74500
O656        O  0.52848721  0.01683906  0.87259507    -0.67000
O657        O  0.07579753  0.51764235  0.90491459    -0.54200
C658        C  0.05545521  0.03259735  0.88455009     0.72900
Zr659      Zr  0.46917313  0.02821086  0.89477074     2.77500
O660        O  0.46235545  0.07002207  0.85125228    -0.97800
O661        O  0.47334037  0.08605888  0.91990251    -0.78600
Zr662      Zr  0.47569254  0.42751550  0.87650286     2.70100
O663        O  0.47492110  0.41858577  0.81464469    -0.79900
O664        O  0.49102203  0.36721111  0.87043841    -0.98900
Zr665      Zr  0.54599055  0.47267994  0.93310133     2.21500
Zr666      Zr  0.40435888  0.46894726  0.93522268     2.11100
O667        O  0.43901617  0.47543564  0.88501904    -2.47600
O668        O  0.50704230  0.47962898  0.88470041    -0.79600
O669        O  0.43537242  0.02129294  0.94434798    -0.71800
O670        O  0.51136422  0.42027716  0.92475909    -2.32800
O671        O  0.50797853  0.02355308  0.94237320    -2.29000
O672        O  0.43936127  0.41871170  0.92513267    -0.73600
H673        H  0.42872341  0.46518273  0.50591588     0.78400
H674        H  0.52706399  0.40085701  0.92108412     0.79500
H675        H  0.42660598  0.47313246  0.86381778     0.81700
H676        H  0.52246345  0.04365450  0.94578038     0.79300
H677        H  0.50874581  0.35121617  0.94983372     0.42300
H678        H  0.47204998  0.35585521  0.88337217     0.41300
H679        H  0.47452716  0.44188130  0.80607685     0.41000
H680        H  0.45435126  0.05743353  0.83030004     0.38900
H681        H  0.44907884  0.09125373  0.92914858     0.42100
H682        H  0.50007437  0.08320507  0.98403466     0.36800
H683        H  0.47673046  0.50448373  0.56282880     0.43000
H684        H  0.46127992  0.37859986  0.53601690     0.39400
H685        H  0.44180695  0.08472184  0.85855829     0.44300
H686        H  0.48309228  0.08264104  0.52075910     0.43000
H687        H  0.45001514  0.35318291  0.50607894     0.43200
H688        H  0.48572840  0.36068409  0.84632945     0.43500
C689        C  0.33223826  0.32546202  0.82194306    -0.06200
C690        C  0.31277258  0.35322461  0.83747847    -0.17300
C691        C  0.32978550  0.38070171  0.85391035     0.11000
C692        C  0.36693223  0.37943221  0.85743926    -0.06100
C693        C  0.38582913  0.34976118  0.84644744    -0.17300
C694        C  0.36882866  0.32229262  0.82985974     0.11000
S695        S  0.30304043  0.41740921  0.86712666    -0.32300
S696        S  0.39443370  0.28331727  0.82446631    -0.32300
H697        H  0.36522690  0.26196491  0.83055263     0.29000
H698        H  0.32851666  0.44136931  0.85745038     0.29000
H699        H  0.28403115  0.35463860  0.83489196     0.19600
H700        H  0.41411771  0.34765530  0.85159459     0.19600
C701        C  0.06681460  0.37930466  0.99179139    -0.06200
C702        C  0.08728708  0.35868620  0.96880522    -0.17300
C703        C  0.08682963  0.32333131  0.97092349     0.11000
C704        C  0.06838938  0.30920534  0.49843592    -0.06100
C705        C  0.04042226  0.32893689  0.51351302    -0.17300
C706        C  0.04520893  0.36397319  0.51617882     0.11000
S707        S  0.10807176  0.29734362  0.93733948    -0.32300
S708        S  0.03246562  0.38606912  0.55613376    -0.32300
H709        H  0.06182386  0.40820215  0.55608833     0.29000
H710        H  0.08823693  0.26795127  0.94395114     0.29000
H711        H  0.10306976  0.36995930  0.94913407     0.19600
H712        H  0.02346399  0.31839763  0.53280519     0.19600
C713        C  0.31519390  0.03709035  0.78822506    -0.06200
C714        C  0.35116819  0.03003991  0.78141245    -0.17300
C715        C  0.37228145  0.01823789  0.80699768     0.11000
C716        C  0.35718164  0.01571424  0.84002109    -0.06100
C717        C  0.32012601  0.01400611  0.84373661    -0.17300
C718        C  0.29856993  0.02268625  0.81684316     0.11000
S719        S  0.41729517  0.00557499  0.79563725    -0.32300
S720        S  0.25052112  0.02056116  0.82178092    -0.32300
H721        H  0.25044750  0.00126676  0.85109362     0.29000
H722        H  0.41241303  0.97267336  0.80741589     0.29000
H723        H  0.36329154  0.03511040  0.75703794     0.19600
H724        H  0.30820203  0.00808397  0.86801823     0.19600
C725        C  0.31755341  0.40332604  0.58449778    -0.06200
C726        C  0.35371687  0.40812085  0.59109909    -0.17300
C727        C  0.37636274  0.41703746  0.56494279     0.11000
C728        C  0.36212964  0.41995515  0.53184386    -0.06100
C729        C  0.32525524  0.42400529  0.02838754    -0.17300
C730        C  0.30272791  0.41816377  0.55561953     0.11000
S731        S  0.42215542  0.42512370  0.57600155    -0.32300
S732        S  0.25543791  0.42316977  0.04919416    -0.32300
H733        H  0.24983769  0.44141976  0.58054268     0.29000
H734        H  0.42225030  0.45722267  0.56182096     0.29000
H735        H  0.36481151  0.40279999  0.61562204     0.19600
H736        H  0.31380180  0.43039137  0.00424771     0.19600
C737        C  0.05741743  0.06903643  0.88082307    -0.06200
C738        C  0.07351128  0.09014733  0.90614282    -0.17300
C739        C  0.07511555  0.12526430  0.90190930     0.11000
C740        C  0.06116243  0.13805665  0.87185439    -0.06100
C741        C  0.03362898  0.11893915  0.85622876    -0.17300
C742        C  0.03802785  0.08382955  0.85473888     0.11000
S743        S  0.09144325  0.15382112  0.93552240    -0.32300
S744        S  0.02921016  0.06140152  0.81415436    -0.32300
H745        H  0.55736335  0.03772490  0.81606632     0.29000
H746        H  0.09629190  0.12894947  0.95969171     0.29000
H747        H  0.08490133  0.07937026  0.92848823     0.19600
H748        H  0.01879034  0.12928542  0.83559529     0.19600
C749        C  0.33723159  0.11267582  0.55345618    -0.06200
C750        C  0.34686395  0.08341546  0.57070489    -0.17300
C751        C  0.35804058  0.05370549  0.55299229     0.11000
C752        C  0.36283695  0.05365524  0.51732690    -0.06100
C753        C  0.35792708  0.08399682  0.50052303    -0.17300
C754        C  0.34684439  0.11393681  0.51846982     0.11000
S755        S  0.36595816  0.51658890  0.57734665    -0.32300
S756        S  0.35306627  0.15322543  0.49713440    -0.32300
H757        H  0.35805304  0.17352812  0.52728854     0.29000
H758        H  0.35795730  0.49276011  0.55061375     0.29000
H759        H  0.34323864  0.08287663  0.59814374     0.19600
H760        H  0.36605563  0.08516214  0.97396358     0.19600
C761        C  0.06378512  0.41024281  0.83540218    -0.02400
C762        C  0.05406378  0.41871281  0.80235376    -0.17300
C763        C  0.04789047  0.39330859  0.77716018     0.11000
C764        C  0.05426173  0.35908874  0.78448689    -0.06100
C765        C  0.05410178  0.35114591  0.81890811    -0.17300
C766        C  0.06383730  0.37588140  0.84365281     0.11000
S767        S  0.03107723  0.40541196  0.73658115    -0.32300
S768        S  0.07693426  0.36291032  0.88489560    -0.32300
H769        H  0.06768335  0.32834581  0.88018855     0.29000
H770        H  0.02248413  0.37207888  0.72481691     0.29000
H771        H  0.04964279  0.44513607  0.79662635     0.19600
H772        H  0.05324793  0.32465537  0.82531484     0.19600
C773        C  0.06529273  0.03408370  0.53173750    -0.06200
C774        C  0.05975225  0.06827101  0.52510621    -0.17300
C775        C  0.05371794  0.09232249  0.55187393     0.11000
C776        C  0.05809799  0.08247915  0.58595088    -0.06100
C777        C  0.05622651  0.04761081  0.59191120    -0.17300
C778        C  0.06299306  0.02358442  0.56548223     0.11000
S779        S  0.04418344  0.13559723  0.54098738    -0.32300
S780        S  0.06982429  0.47994474  0.57634440    -0.32300
H781        H  0.09110885  0.47060296  0.54749794     0.29000
H782        H  0.02711091  0.14508630  0.57205668     0.29000
H783        H  0.05847959  0.07594436  0.99898437     0.19600
H784        H  0.05414733  0.03905286  0.61766832     0.19600
C785        C  0.07986060  0.60481201  0.11069844     0.86400
C786        C  0.10841289  0.62442858  0.09080900    -0.53800
C787        C  0.12917030  0.64554465  0.10953720     0.09300
C788        C  0.11992024  0.64412519  0.14888743     0.20300
C789        C  0.10242397  0.58511222  0.13630418    -0.54500
C790        C  0.12415841  0.60437675  0.15626964     0.09500
C791        C  0.05802351  0.63179651  0.13236255    -0.54100
C792        C  0.07795717  0.65355526  0.15237415     0.10000
H793        H  0.11270900  0.62181602  0.06338573     0.14500
H794        H  0.13724328  0.66113573  0.16486647     0.00300
H795        H  0.10457195  0.55767132  0.13638768     0.14800
H796        H  0.02932086  0.63473554  0.13028223     0.14600
C797        C  0.06187945  0.75407321  0.20013026     0.29900
C798        C  0.06267852  0.68820378  0.16998460     0.29900
C799        C  0.07855214  0.72628355  0.21975670    -0.06300
C800        C  0.02262350  0.73765588  0.19381538    -0.07000
C801        C  0.07787708  0.74929290  0.16452634    -0.06900
C802        C  0.07952933  0.69339885  0.20468357    -0.06300
C803        C  0.02310666  0.70381670  0.17776703    -0.07000
C804        C  0.07803622  0.71625513  0.14955291    -0.06900
C805        C  0.07792525  0.67184916  0.23095142    -0.32300
N806        N  0.07757006  0.69000223  0.26089544     0.14200
C807        C  0.07536282  0.72302647  0.25421661    -0.32300
H808        H  0.06781346  0.74321868  0.27269474     0.16100
C809        C  0.48667355  0.69473804  0.17318491    -0.31300
N810        N  0.46390018  0.72029890  0.18594067     0.12900
C811        C  0.48579698  0.74619004  0.19862427    -0.31300
C812        C  0.07377298  0.71929783  0.11522292    -0.31600
N813        N  0.07374786  0.75232980  0.10823200     0.13400
H814        H  0.06718381  0.69874044  0.09703226     0.16000
C815        C  0.07379800  0.77053486  0.13817736    -0.31600
H816        H  0.06436828  0.79637332  0.14091383     0.16000
H817        H  0.47588383  0.77010564  0.21003469     0.16000
H818        H  0.07039747  0.64564449  0.22831682     0.16100
H819        H  0.47761174  0.67084048  0.16149538     0.16000
C820        C  0.07742789  0.83654537  0.26046798     0.86400
C821        C  0.10538450  0.81580681  0.28012106    -0.53800
C822        C  0.12714116  0.79531182  0.26103205     0.09300
C823        C  0.11890278  0.79780237  0.22175467     0.20300
C824        C  0.10085970  0.85676760  0.23597765    -0.54500
C825        C  0.12336101  0.83783733  0.21577696     0.09500
C826        C  0.05638156  0.81004545  0.23837041    -0.54100
C827        C  0.07688121  0.78864370  0.21784542     0.10000
H828        H  0.10902231  0.81717490  0.30755111     0.14500
H829        H  0.13676705  0.78114615  0.20535180     0.00300
H830        H  0.10252531  0.88431486  0.23699694     0.14800
H831        H  0.02773348  0.80678885  0.24102627     0.14600
C832        C  0.15457080  0.58738326  0.17726406     0.29900
C833        C  0.21388640  0.57558686  0.21523410     0.29900
C834        C  0.15291758  0.60023572  0.21483707    -0.06300
C835        C  0.16419852  0.54739227  0.18153369    -0.07000
C836        C  0.19042542  0.60156322  0.16495502    -0.06900
C837        C  0.18313018  0.59420336  0.23381073    -0.06300
C838        C  0.19523476  0.54222287  0.20121736    -0.07000
C839        C  0.21971625  0.59557721  0.18363362    -0.06900
C840        C  0.17288331  0.59465375  0.26756517    -0.32300
N841        N  0.13800547  0.60299450  0.27068972     0.14200
C842        C  0.12528905  0.60316367  0.23841339    -0.32300
H843        H  0.09747769  0.60046153  0.23246123     0.16100
C844        C  0.19966728  0.50717490  0.20458539    -0.31300
N845        N  0.17277734  0.98952550  0.18877931     0.12900
C846        C  0.15125949  0.51357668  0.17419480    -0.31300
C847        C  0.24890349  0.60810698  0.16657176    -0.31600
N848        N  0.23834312  0.62458235  0.13874112     0.13400
H849        H  0.27581050  0.60117754  0.17194978     0.16000
C850        C  0.20288327  0.61600100  0.13615140    -0.31600
H851        H  0.18797891  0.61083419  0.11359801     0.16000
H852        H  0.12801479  0.00712872  0.15915655     0.16000
H853        H  0.18923348  0.58662764  0.28817886     0.16100
H854        H  0.22107406  0.99491807  0.21755623     0.16000
C855        C  0.31299777  0.63858924  0.07269197     0.86400
C856        C  0.28480942  0.61983859  0.09413901    -0.53800
C857        C  0.26289091  0.63983961  0.11394285     0.09300
C858        C  0.27107783  0.67887304  0.10935385     0.20300
C859        C  0.28982698  0.66170902  0.05083511    -0.54500
C860        C  0.26736857  0.68319929  0.06876421     0.09500
C861        C  0.33349895  0.66219327  0.09855170    -0.54100
C862        C  0.31268213  0.68339253  0.11898062     0.10000
H863        H  0.28229901  0.59229564  0.09407066     0.14500
H864        H  0.25297714  0.69584892  0.12516781     0.00300
H865        H  0.28776016  0.65858099  0.02337070     0.14800
H866        H  0.36208321  0.65997080  0.10225226     0.14600
C867        C  0.08751882  0.64932718  0.34507192     0.86400
C868        C  0.10468214  0.61801464  0.32423977    -0.53800
C869        C  0.12512045  0.62662682  0.29738432     0.09300
C870        C  0.12879191  0.66480274  0.29475588     0.20300
C871        C  0.11954107  0.67110963  0.35672307    -0.54500
C872        C  0.14163583  0.67863725  0.33040198     0.09500
C873        C  0.06900380  0.67065008  0.31832351    -0.54100
C874        C  0.09048548  0.67740272  0.29180052     0.10000
H875        H  0.10041922  0.59151355  0.32919195     0.14500
H876        H  0.14591602  0.67165341  0.27280758     0.00300
H877        H  0.12359330  0.68090399  0.38245918     0.14800
H878        H  0.04107225  0.67822251  0.31912381     0.14600
C879        C  0.32689129  0.70285354  0.15305986     0.29900
C880        C  0.32597193  0.73676860  0.21726506     0.29900
C881        C  0.31085187  0.68416478  0.18245239    -0.06300
C882        C  0.36610392  0.71102841  0.16871736    -0.07000
C883        C  0.31016977  0.73825502  0.15584096    -0.06900
C884        C  0.31033225  0.70095565  0.21471799    -0.06300
C885        C  0.36550113  0.72901009  0.20166145    -0.07000
C886        C  0.31002125  0.75516119  0.18795002    -0.06900
C887        C  0.31495519  0.67566429  0.23749634    -0.32300
N888        N  0.31584449  0.64457424  0.22119249     0.14200
C889        C  0.31556456  0.64997885  0.18760345    -0.32300
H890        H  0.32269539  0.63084061  0.16787038     0.16100
C891        C  0.40184967  0.73421341  0.21055020    -0.31300
N892        N  0.42474352  0.72012501  0.18566727     0.12900
C893        C  0.40297669  0.70588253  0.16047197    -0.31300
C894        C  0.31379927  0.78932478  0.18246039    -0.31600
N895        N  0.31356007  0.79439626  0.14881694     0.13400
H896        H  0.32075749  0.80861458  0.20182778     0.16000
C897        C  0.31336622  0.76328952  0.13265521    -0.31600
H898        H  0.32157990  0.75884621  0.10654969     0.16000
H899        H  0.41302390  0.69292858  0.13729552     0.16000
H900        H  0.32391914  0.67997665  0.26321779     0.16100
H901        H  0.41077175  0.74700996  0.23396779     0.16000
C902        C  0.29835229  0.87458926  0.10021595     0.86400
C903        C  0.28325918  0.84993844  0.07186573    -0.53800
C904        C  0.26368239  0.82451219  0.08406906     0.09300
C905        C  0.26057572  0.82559875  0.12282588     0.20300
C906        C  0.26688466  0.88734935  0.12245869    -0.54500
C907        C  0.24666481  0.86196966  0.13395341     0.09500
C908        C  0.31978740  0.85020039  0.12276897    -0.54100
C909        C  0.29942835  0.82433277  0.13415052     0.10000
H910        H  0.28913979  0.85133908  0.04477263     0.14500
H911        H  0.24431294  0.80434239  0.13227887     0.00300
H912        H  0.26192609  0.91397092  0.12892973     0.14800
H913        H  0.34833792  0.85089877  0.12688509     0.14600
C914        C  0.29725909  0.56577944  0.27127113     0.86400
C915        C  0.28183041  0.59149503  0.29880647    -0.53800
C916        C  0.26325359  0.61703190  0.28577320     0.09300
C917        C  0.26139109  0.61517001  0.24700894     0.20300
C918        C  0.26604214  0.55338230  0.24927839    -0.54500
C919        C  0.24689557  0.57908315  0.23677156     0.09500
C920        C  0.32001753  0.58889363  0.24816089    -0.54100
C921        C  0.30061036  0.61502262  0.23584728     0.10000
H922        H  0.28645726  0.59048517  0.32604253     0.14500
H923        H  0.24588138  0.63668038  0.23705803     0.00300
H924        H  0.25980431  0.52674445  0.24483698     0.14800
H925        H  0.34872733  0.58737356  0.24457819     0.14600
C926        C  0.15423644  0.85501305  0.19527794     0.29900
C927        C  0.21376943  0.86618920  0.15625195     0.29900
C928        C  0.15298336  0.84234243  0.15783423    -0.06300
C929        C  0.16397293  0.89494540  0.19100018    -0.07000
C930        C  0.19002388  0.84035502  0.20697256    -0.06900
C931        C  0.18305455  0.84826560  0.13831691    -0.06300
C932        C  0.19516928  0.89975580  0.17076873    -0.07000
C933        C  0.21943673  0.84599103  0.18764513    -0.06900
C934        C  0.17331242  0.84639870  0.10472574    -0.32300
N935        N  0.13886953  0.83694104  0.10258149     0.14200
C936        C  0.12575015  0.83717083  0.13499600    -0.32300
H937        H  0.09789003  0.83762685  0.14153645     0.16100
C938        C  0.19958496  0.93471563  0.16714277    -0.31300
N939        N  0.17271231  0.95271653  0.18352739     0.12900
C940        C  0.15106238  0.92894345  0.19854968    -0.31300
C941        C  0.24875286  0.83399123  0.20446016    -0.31600
N942        N  0.23826877  0.81823857  0.23288848     0.13400
H943        H  0.27564270  0.84069209  0.19835473     0.16000
C944        C  0.20265489  0.82698489  0.23605936    -0.31600
H945        H  0.18766630  0.83294867  0.25895496     0.16000
H946        H  0.12771623  0.93566416  0.21399125     0.16000
H947        H  0.18967479  0.85372439  0.08356476     0.16100
H948        H  0.22089329  0.94665795  0.15346341     0.16000
C949        C  0.09117976  0.79497417  0.02598939     0.86400
C950        C  0.10811927  0.82473165  0.04833533    -0.53800
C951        C  0.12611384  0.81438045  0.07551931     0.09300
C952        C  0.12833832  0.77594145  0.07702799     0.20300
C953        C  0.12274800  0.77182689  0.01495714    -0.54500
C954        C  0.14307904  0.76281210  0.04148476     0.09500
C955        C  0.06982303  0.77375189  0.05119921    -0.54100
C956        C  0.08930365  0.76481832  0.07808643     0.10000
H957        H  0.10538891  0.85160282  0.04402451     0.14500
H958        H  0.14388384  0.76776405  0.09920316     0.00300
H959        H  0.12745363  0.76199502  0.98940353     0.14800
H960        H  0.04162508  0.76782833  0.04919582     0.14600
C961        C  0.31165325  0.80104254  0.29822131     0.86400
C962        C  0.28579358  0.82111412  0.27582856    -0.53800
C963        C  0.26274682  0.80210207  0.25686685     0.09300
C964        C  0.26970414  0.76267361  0.26108089     0.20300
C965        C  0.28813047  0.77793304  0.31949599    -0.54500
C966        C  0.26520854  0.75796651  0.30144525     0.09500
C967        C  0.33229588  0.77748325  0.27146688    -0.54100
C968        C  0.31139432  0.75672935  0.25128318     0.10000
H969        H  0.28613052  0.84868224  0.27452348     0.14500
H970        H  0.25149380  0.74644845  0.24523623     0.00300
H971        H  0.28811904  0.77914246  0.34721944     0.14800
H972        H  0.36041941  0.78007800  0.26563660     0.14600
C973        C  0.17674172  0.74152268  0.03908170     0.29900
C974        C  0.23678548  0.70363603  0.05073859     0.29900
C975        C  0.17124034  0.70996609  0.05866607    -0.06300
C976        C  0.19673138  0.72859379  0.00588805    -0.07000
C977        C  0.20633862  0.75987753  0.05817978    -0.06900
C978        C  0.20070720  0.69111093  0.06437250    -0.06300
C979        C  0.22810801  0.70884348  0.01059513    -0.07000
C980        C  0.23705868  0.74095361  0.06412901    -0.06900
C981        C  0.18882557  0.66420137  0.08202136    -0.32300
N982        N  0.15371983  0.66852469  0.09225348     0.14200
C983        C  0.14266781  0.69514502  0.07429964    -0.32300
H984        H  0.11562385  0.70114249  0.06885778     0.16100
C985        C  0.24263423  0.70438325  0.47655687    -0.31300
N986        N  0.22201455  0.72140741  0.45343510     0.12900
C987        C  0.19443293  0.73587224  0.47167680    -0.31300
C988        C  0.26430085  0.76434264  0.06532015    -0.31600
N989        N  0.25097566  0.79628250  0.06337281     0.13400
H990        H  0.29219051  0.75816872  0.06218585     0.16000
C991        C  0.21614364  0.79317974  0.05644806    -0.31600
H992        H  0.19979684  0.81314866  0.04685623     0.16000
H993        H  0.17430303  0.75107202  0.46014225     0.16000
H994        H  0.20412051  0.64133027  0.07918997     0.16100
H995        H  0.26651496  0.68996159  0.46950235     0.16000
C996        C  0.17491490  0.70003555  0.33249841     0.29900
C997        C  0.23454609  0.73769348  0.31940006     0.29900
C998        C  0.16908627  0.73161398  0.31287795    -0.06300
C999        C  0.19477870  0.71297284  0.36519266    -0.07000
C1000       C  0.20478976  0.68167680  0.31279272    -0.06900
C1001       C  0.19842523  0.75018386  0.30630149    -0.06300
C1002       C  0.22599639  0.73250690  0.35964092    -0.07000
C1003       C  0.23516051  0.70059985  0.30590640    -0.06900
C1004       C  0.18673580  0.77625680  0.28755840    -0.32300
N1005       N  0.15168001  0.77215187  0.27804973     0.14200
C1006       C  0.14058842  0.74624051  0.29717986    -0.32300
H1007       H  0.11349633  0.74068363  0.30339328     0.16100
C1008       C  0.24155423  0.73576035  0.39289923    -0.31300
N1009       N  0.22163515  0.71836524  0.41651864     0.12900
C1010       C  0.19343514  0.70473725  0.39921691    -0.31300
C1011       C  0.26267511  0.67740849  0.30348640    -0.31600
N1012       N  0.24977759  0.64553685  0.30586558     0.13400
H1013       H  0.29045706  0.68369324  0.30545287     0.16000
C1014       C  0.21500631  0.64839354  0.31397741    -0.31600
H1015       H  0.19900836  0.62825390  0.32372216     0.16000
H1016       H  0.17331338  0.68947945  0.41100720     0.16000
H1017       H  0.20210927  0.79868982  0.28978497     0.16100
H1018       H  0.26571850  0.74957478  0.39911564     0.16000
O1019       O  0.53005738  0.49227031  0.50699438    -0.75400
O1020       O  0.07666368  0.00625628  0.47685483    -0.54300
C1021       C  0.05832003  0.50935861  0.50431005     0.78400
O1022       O  0.41658712  0.90967462  0.50313766    -0.60000
O1023       O  0.37276419  0.93925667  0.47742540    -0.53000
C1024       C  0.38475447  0.92192764  0.50167309     0.70400
O1025       O  0.53174876  0.92870074  0.49685584    -0.74500
O1026       O  0.07845974  0.92994322  0.46257832    -0.55100
C1027       C  0.06040756  0.91491020  0.48509835     0.76400
O1028       O  0.41392554  0.52089706  0.51468977    -0.59700
O1029       O  0.37525212  0.51395129  0.47067972    -0.52800
C1030       C  0.38460275  0.52719620  0.49991607     0.73000
Zr1031     Zr  0.47333995  0.51471100  0.49155911     2.54700
O1032       O  0.47618473  0.52717515  0.05290251    -0.80200
O1033       O  0.47823009  0.57679051  0.49643153    -0.93600
Zr1034     Zr  0.47424456  0.91351863  0.47367850     2.64700
O1035       O  0.46980140  0.86812795  0.01397779    -0.98600
O1036       O  0.48307554  0.85648416  0.44735094    -0.80700
O1037       O  0.50837846  0.96425941  0.48267838    -0.84000
O1038       O  0.44048824  0.96442224  0.48411049    -2.18700
O1039       O  0.41046629  0.52834263  0.36798723    -0.67400
O1040       O  0.36899258  0.49583556  0.39404972    -0.52000
C1041       C  0.37960208  0.51421103  0.36988533     0.71400
O1042       O  0.53061400  0.95381492  0.36165878    -0.60300
O1043       O  0.07900211  0.94105898  0.38808981    -0.52300
C1044       C  0.05931856  0.93695530  0.36204765     0.73200
O1045       O  0.41694087  0.91342593  0.35679066    -0.71700
O1046       O  0.37753603  0.92256039  0.40103765    -0.50400
C1047       C  0.38777685  0.90747365  0.37261966     0.74500
O1048       O  0.52848773  0.51683851  0.37259437    -0.67000
O1049       O  0.07579733  0.01764220  0.40491438    -0.54200
C1050       C  0.05545502  0.53259716  0.38454991     0.72900
Zr1051     Zr  0.46917363  0.52821027  0.39477002     2.77500
O1052       O  0.46235586  0.57002126  0.35125137    -0.97800
O1053       O  0.47334108  0.58605828  0.41990173    -0.78600
Zr1054     Zr  0.47569314  0.92751486  0.37650320     2.70100
O1055       O  0.47492130  0.91858499  0.31464510    -0.79900
O1056       O  0.49102264  0.86721041  0.37043871    -0.98900
Zr1057     Zr  0.54599116  0.97267985  0.43310121     2.21500
Zr1058     Zr  0.40435949  0.96894721  0.43522249     2.11100
O1059       O  0.43901680  0.97543508  0.38501880    -2.47600
O1060       O  0.50704290  0.97962844  0.38470018    -0.79600
O1061       O  0.43537289  0.52129285  0.44434734    -0.71800
O1062       O  0.51136485  0.92027697  0.42475946    -2.32800
O1063       O  0.50797895  0.52355296  0.44237264    -2.29000
O1064       O  0.43936175  0.91871151  0.42513301    -0.73600
H1065       H  0.42872296  0.96518231  0.00591601     0.78400
H1066       H  0.52706467  0.90085669  0.42108467     0.79500
H1067       H  0.42660658  0.97313160  0.36381768     0.81700
H1068       H  0.52246387  0.54365442  0.44577973     0.79300
H1069       H  0.50874602  0.85121629  0.44983469     0.42300
H1070       H  0.47205074  0.85585448  0.38337262     0.41300
H1071       H  0.47452732  0.94188051  0.30607724     0.41000
H1072       H  0.45435183  0.55743252  0.33029910     0.38900
H1073       H  0.44907944  0.59125340  0.42914740     0.42100
H1074       H  0.50007512  0.58320510  0.48403390     0.36800
H1075       H  0.47673128  0.00448332  0.06282910     0.43000
H1076       H  0.46127971  0.87859936  0.03601612     0.39400
H1077       H  0.44180728  0.58472090  0.35855719     0.44300
H1078       H  0.48309133  0.58264072  0.02075985     0.43000
H1079       H  0.45001458  0.85318268  0.00607805     0.43200
H1080       H  0.48572884  0.86068331  0.34632980     0.43500
C1081       C  0.33223808  0.82546195  0.32194317    -0.06200
C1082       C  0.31277263  0.85322477  0.33747834    -0.17300
C1083       C  0.32978568  0.88070171  0.35391037     0.11000
C1084       C  0.36693238  0.87943182  0.35743960    -0.06100
C1085       C  0.38582898  0.84976053  0.34644801    -0.17300
C1086       C  0.36882832  0.82229215  0.32986022     0.11000
S1087       S  0.30304086  0.91740944  0.36712646    -0.32300
S1088       S  0.39443302  0.78331654  0.32446687    -0.32300
H1089       H  0.36522597  0.76196446  0.33055312     0.29000
H1090       H  0.32851750  0.94136931  0.35745059     0.29000
H1091       H  0.28403124  0.85463908  0.33489159     0.19600
H1092       H  0.41411749  0.84765433  0.35159538     0.19600
C1093       C  0.06681473  0.87930481  0.49179128    -0.06200
C1094       C  0.08728700  0.85868625  0.46880508    -0.17300
C1095       C  0.08682958  0.82333137  0.47092352     0.11000
C1096       C  0.06838940  0.80920509  0.99843577    -0.06100
C1097       C  0.04042216  0.82893651  0.01351281    -0.17300
C1098       C  0.04520875  0.86397280  0.01617872     0.11000
S1099       S  0.10807192  0.79734358  0.43733972    -0.32300
S1100       S  0.03246524  0.88606854  0.05613373    -0.32300
H1101       H  0.06182333  0.90820176  0.05608840     0.29000
H1102       H  0.08823694  0.76795130  0.44395132     0.29000
H1103       H  0.10306964  0.86995926  0.44913385     0.19600
H1104       H  0.02346383  0.81839717  0.03280489     0.19600
C1105       C  0.31519391  0.53709055  0.28822519    -0.06200
C1106       C  0.35116808  0.53003983  0.28141225    -0.17300
C1107       C  0.37228143  0.51823732  0.30699715     0.11000
C1108       C  0.35718187  0.51571341  0.34002062    -0.06100
C1109       C  0.32012626  0.51400563  0.34373644    -0.17300
C1110       C  0.29857004  0.52268641  0.31684333     0.11000
S1111       S  0.41729504  0.50557438  0.29563629    -0.32300
S1112       S  0.25052124  0.52056188  0.32178149    -0.32300
H1113       H  0.25044771  0.50126658  0.35109357     0.29000
H1114       H  0.41241326  0.47267298  0.30741562     0.29000
H1115       H  0.36329125  0.53511044  0.25703768     0.19600
H1116       H  0.30820243  0.50808339  0.36801810     0.19600
C1117       C  0.31755313  0.90332618  0.08449791    -0.06200
C1118       C  0.35371661  0.90812102  0.09109915    -0.17300
C1119       C  0.37636245  0.91703739  0.06494273     0.11000
C1120       C  0.36212926  0.91995502  0.03184381    -0.06100
C1121       C  0.32525568  0.92400543  0.52838749    -0.17300
C1122       C  0.30272758  0.91816383  0.05561965     0.11000
S1123       S  0.42215528  0.92512313  0.07600128    -0.32300
S1124       S  0.25543837  0.92316984  0.54919392    -0.32300
H1125       H  0.24983745  0.94142005  0.08054294     0.29000
H1126       H  0.42225024  0.95722237  0.06182125     0.29000
H1127       H  0.36481129  0.90280014  0.11562208     0.19600
H1128       H  0.31380229  0.93039157  0.50424766     0.19600
C1129       C  0.05741715  0.56903627  0.38082296    -0.06200
C1130       C  0.07351090  0.59014723  0.40614273    -0.17300
C1131       C  0.07511520  0.62526418  0.40190917     0.11000
C1132       C  0.06116215  0.63805650  0.37185427    -0.06100
C1133       C  0.03362876  0.61893894  0.35622854    -0.17300
C1134       C  0.03802763  0.58382934  0.35473869     0.11000
S1135       S  0.09144289  0.65382108  0.43552223    -0.32300
S1136       S  0.02921009  0.56140124  0.31415419    -0.32300
H1137       H  0.55736418  0.53772466  0.31606578     0.29000
H1138       H  0.09629155  0.62894946  0.45969157     0.29000
H1139       H  0.08490092  0.57937022  0.42848819     0.19600
H1140       H  0.01879019  0.62928518  0.33559502     0.19600
C1141       C  0.33723169  0.61267575  0.05345668    -0.06200
C1142       C  0.34686403  0.58341550  0.07070556    -0.17300
C1143       C  0.35804053  0.55370541  0.05299307     0.11000
C1144       C  0.36283678  0.55365495  0.01732764    -0.06100
C1145       C  0.35792698  0.58399648  0.00052364    -0.17300
C1146       C  0.34684448  0.61393657  0.01847035     0.11000
S1147       S  0.36595822  0.01658903  0.07734744    -0.32300
S1148       S  0.35306653  0.65322517  0.99713500    -0.32300
H1149       H  0.35805343  0.67352777  0.02728918     0.29000
H1150       H  0.35795650  0.99276023  0.05061479     0.29000
H1151       H  0.34323881  0.58287685  0.09814443     0.19600
H1152       H  0.36605596  0.58516233  0.47396314     0.19600
C1153       C  0.06378469  0.91024270  0.33540211    -0.02400
C1154       C  0.05406317  0.91871260  0.30235368    -0.17300
C1155       C  0.04789015  0.89330829  0.27716007     0.11000
C1156       C  0.05426171  0.85908852  0.28448685    -0.06100
C1157       C  0.05410190  0.85114573  0.31890806    -0.17300
C1158       C  0.06383724  0.87588129  0.34365274     0.11000
S1159       S  0.03107687  0.90541141  0.23658098    -0.32300
S1160       S  0.07693445  0.86291026  0.38489548    -0.32300
H1161       H  0.06768846  0.82834466  0.38018684     0.29000
H1162       H  0.02248423  0.87207824  0.22481667     0.29000
H1163       H  0.04964195  0.94513581  0.29662628     0.19600
H1164       H  0.05324809  0.82465519  0.32531479     0.19600
C1165       C  0.06529281  0.53408353  0.03173726    -0.06200
C1166       C  0.05975218  0.56827086  0.02510611    -0.17300
C1167       C  0.05371786  0.59232223  0.05187394     0.11000
C1168       C  0.05809806  0.58247882  0.08595081    -0.06100
C1169       C  0.05622674  0.54761044  0.09191101    -0.17300
C1170       C  0.06299321  0.52358411  0.06548194     0.11000
S1171       S  0.04418330  0.63559701  0.04098758    -0.32300
S1172       S  0.06982419  0.97994444  0.07634414    -0.32300
H1173       H  0.09110867  0.97060254  0.04749767     0.29000
H1174       H  0.02711120  0.64508616  0.07205706     0.29000
H1175       H  0.05847987  0.57594446  0.49898450     0.19600
H1176       H  0.05414759  0.53905241  0.11766810     0.19600
C1177       C  0.07986063  0.60481226  0.61069856     0.86400
C1178       C  0.10841286  0.62442886  0.59080910    -0.53800
C1179       C  0.12917035  0.64554485  0.60953734     0.09300
C1180       C  0.11992034  0.64412535  0.64888756     0.20300
C1181       C  0.10242400  0.58511240  0.63630420    -0.54500
C1182       C  0.12415846  0.60437688  0.65626967     0.09500
C1183       C  0.05802360  0.63179674  0.63236275    -0.54100
C1184       C  0.07795727  0.65355546  0.65237435     0.10000
H1185       H  0.11270896  0.62181635  0.56338584     0.14500
H1186       H  0.13724347  0.66113586  0.66486652     0.00300
H1187       H  0.10457198  0.55767150  0.63638761     0.14800
H1188       H  0.02932095  0.63473580  0.63028247     0.14600
C1189       C  0.06187953  0.75407340  0.70013048     0.29900
C1190       C  0.06267860  0.68820396  0.66998482     0.29900
C1191       C  0.07855228  0.72628377  0.71975690    -0.06300
C1192       C  0.02262355  0.73765600  0.69381566    -0.07000
C1193       C  0.07787713  0.74929309  0.66452652    -0.06900
C1194       C  0.07952947  0.69339906  0.70468376    -0.06300
C1195       C  0.02310671  0.70381680  0.67776732    -0.07000
C1196       C  0.07803618  0.71625533  0.64955309    -0.06900
C1197       C  0.07792543  0.67184939  0.73095163    -0.32300
N1198       N  0.07757026  0.69000246  0.76089565     0.14200
C1199       C  0.07536299  0.72302670  0.75421681    -0.32300
H1200       H  0.06781366  0.74321891  0.77269496     0.16100
C1201       C  0.48667355  0.69473829  0.67318484    -0.31300
N1202       N  0.46390020  0.72029914  0.68594062     0.12900
C1203       C  0.48579697  0.74619024  0.69862437    -0.31300
C1204       C  0.07377282  0.71929805  0.61522311    -0.31600
N1205       N  0.07374779  0.75233004  0.60823220     0.13400
H1206       H  0.06718365  0.69874065  0.59703246     0.16000
C1207       C  0.07379809  0.77053508  0.63817757    -0.31600
H1208       H  0.06436845  0.79637357  0.64091408     0.16000
H1209       H  0.47588380  0.77010584  0.71003481     0.16000
H1210       H  0.07039762  0.64564473  0.72831706     0.16100
H1211       H  0.47761176  0.67084075  0.66149521     0.16000
C1212       C  0.07742804  0.83654560  0.76046814     0.86400
C1213       C  0.10538462  0.81580705  0.78012127    -0.53800
C1214       C  0.12714131  0.79531204  0.76103228     0.09300
C1215       C  0.11890294  0.79780257  0.72175487     0.20300
C1216       C  0.10085988  0.85676782  0.73597783    -0.54500
C1217       C  0.12336119  0.83783753  0.71577713     0.09500
C1218       C  0.05638171  0.81004567  0.73837058    -0.54100
C1219       C  0.07688135  0.78864390  0.71784562     0.10000
H1220       H  0.10902237  0.81717512  0.80755134     0.14500
H1221       H  0.13676723  0.78114636  0.70535201     0.00300
H1222       H  0.10252548  0.88431507  0.73699714     0.14800
H1223       H  0.02773363  0.80678908  0.74102645     0.14600
C1224       C  0.15457086  0.58738331  0.67726402     0.29900
C1225       C  0.21388655  0.57558687  0.71523395     0.29900
C1226       C  0.15291772  0.60023572  0.71483704    -0.06300
C1227       C  0.16419860  0.54739230  0.68153357    -0.07000
C1228       C  0.19042545  0.60156330  0.66495494    -0.06900
C1229       C  0.18313035  0.59420333  0.73381066    -0.06300
C1230       C  0.19523491  0.54222290  0.70121716    -0.07000
C1231       C  0.21971632  0.59557728  0.68363346    -0.06900
C1232       C  0.17288351  0.59465383  0.76756513    -0.32300
N1233       N  0.13800566  0.60299462  0.77068969     0.14200
C1234       C  0.12528921  0.60316378  0.73841337    -0.32300
H1235       H  0.09747784  0.60046175  0.73246120     0.16100
C1236       C  0.19966748  0.50717495  0.70458510    -0.31300
N1237       N  0.17277754  0.98952556  0.68877915     0.12900
C1238       C  0.15125955  0.51357670  0.67419470    -0.31300
C1239       C  0.24890350  0.60810710  0.66657156    -0.31600
N1240       N  0.23834303  0.62458239  0.63874090     0.13400
H1241       H  0.27581055  0.60117779  0.67194957     0.16000
C1242       C  0.20288319  0.61600096  0.63615125    -0.31600
H1243       H  0.18797881  0.61083400  0.61359788     0.16000
H1244       H  0.12801482  0.00712866  0.65915654     0.16000
H1245       H  0.18923368  0.58662778  0.78817882     0.16100
H1246       H  0.22107438  0.99491819  0.71755586     0.16000
C1247       C  0.31299764  0.63858920  0.57269169     0.86400
C1248       C  0.28480923  0.61983858  0.59413869    -0.53800
C1249       C  0.26289079  0.63983964  0.61394260     0.09300
C1250       C  0.27107781  0.67887305  0.60935368     0.20300
C1251       C  0.28982688  0.66170907  0.55083491    -0.54500
C1252       C  0.26736854  0.68319938  0.56876409     0.09500
C1253       C  0.33349889  0.66219312  0.59855152    -0.54100
C1254       C  0.31268215  0.68339240  0.61898049     0.10000
H1255       H  0.28229874  0.59229563  0.59407032     0.14500
H1256       H  0.25297718  0.69584896  0.62516765     0.00300
H1257       H  0.28775991  0.65858102  0.52337050     0.14800
H1258       H  0.36208313  0.65997057  0.60225209     0.14600
C1259       C  0.08751914  0.64932728  0.84507204     0.86400
C1260       C  0.10468233  0.61801475  0.82423975    -0.53800
C1261       C  0.12512063  0.62662692  0.79738431     0.09300
C1262       C  0.12879216  0.66480284  0.79475599     0.20300
C1263       C  0.11954144  0.67110963  0.85672318    -0.54500
C1264       C  0.14163614  0.67863726  0.83040209     0.09500
C1265       C  0.06900413  0.67065025  0.81832370    -0.54100
C1266       C  0.09048577  0.67740294  0.79180070     0.10000
H1267       H  0.10041938  0.59151366  0.82919190     0.14500
H1268       H  0.14591629  0.67165352  0.77280771     0.00300
H1269       H  0.12359373  0.68090392  0.88245928     0.14800
H1270       H  0.04107257  0.67822271  0.81912405     0.14600
C1271       C  0.32689137  0.70285344  0.65305979     0.29900
C1272       C  0.32597202  0.73676852  0.71726501     0.29900
C1273       C  0.31085205  0.68416464  0.68245236    -0.06300
C1274       C  0.36610396  0.71102843  0.66871728    -0.07000
C1275       C  0.31016975  0.73825488  0.65584093    -0.06900
C1276       C  0.31033243  0.70095551  0.71471795    -0.06300
C1277       C  0.36550117  0.72901008  0.70166137    -0.07000
C1278       C  0.31002127  0.75516108  0.68794999    -0.06900
C1279       C  0.31495552  0.67566418  0.73749629    -0.32300
N1280       N  0.31584490  0.64457413  0.72119249     0.14200
C1281       C  0.31556493  0.64997872  0.68760344    -0.32300
H1282       H  0.32269586  0.63084049  0.66787037     0.16100
C1283       C  0.40184970  0.73421354  0.71055011    -0.31300
N1284       N  0.42474356  0.72012524  0.68566716     0.12900
C1285       C  0.40297674  0.70588272  0.66047185    -0.31300
C1286       C  0.31379927  0.78932466  0.68246035    -0.31600
N1287       N  0.31356003  0.79439612  0.64881690     0.13400
H1288       H  0.32075756  0.80861446  0.70182771     0.16000
C1289       C  0.31336612  0.76328938  0.63265516    -0.31600
H1290       H  0.32157981  0.75884606  0.60654965     0.16000
H1291       H  0.41302394  0.69292889  0.63729533     0.16000
H1292       H  0.32391947  0.67997659  0.76321773     0.16100
H1293       H  0.41077176  0.74701015  0.73396769     0.16000
C1294       C  0.29835256  0.87458917  0.60021589     0.86400
C1295       C  0.28325936  0.84993838  0.57186569    -0.53800
C1296       C  0.26368249  0.82451220  0.58406902     0.09300
C1297       C  0.26057584  0.82559875  0.62282583     0.20300
C1298       C  0.26688491  0.88734933  0.62245863    -0.54500
C1299       C  0.24666500  0.86196967  0.63395337     0.09500
C1300       C  0.31978760  0.85020027  0.62276892    -0.54100
C1301       C  0.29942846  0.82433269  0.63415047     0.10000
H1302       H  0.28913994  0.85133902  0.54477258     0.14500
H1303       H  0.24431302  0.80434241  0.63227881     0.00300
H1304       H  0.26192637  0.91397089  0.62892970     0.14800
H1305       H  0.34833811  0.85089861  0.62688504     0.14600
C1306       C  0.29725917  0.56577926  0.77127102     0.86400
C1307       C  0.28183039  0.59149481  0.79880632    -0.53800
C1308       C  0.26325373  0.61703179  0.78577306     0.09300
C1309       C  0.26139134  0.61516997  0.74700882     0.20300
C1310       C  0.26604229  0.55338221  0.74927816    -0.54500
C1311       C  0.24689580  0.57908311  0.73677133     0.09500
C1312       C  0.32001770  0.58889352  0.74816093    -0.54100
C1313       C  0.30061063  0.61502255  0.73584726     0.10000
H1314       H  0.28645707  0.59048485  0.82604240     0.14500
H1315       H  0.24588165  0.63668034  0.73705795     0.00300
H1316       H  0.25980439  0.52674438  0.74483678     0.14800
H1317       H  0.34872753  0.58737347  0.74457833     0.14600
C1318       C  0.15423663  0.85501317  0.69527803     0.29900
C1319       C  0.21376964  0.86618925  0.65625198     0.29900
C1320       C  0.15298351  0.84234265  0.65783430    -0.06300
C1321       C  0.16397321  0.89494548  0.69100033    -0.07000
C1322       C  0.19002408  0.84035500  0.70697254    -0.06900
C1323       C  0.18305470  0.84826576  0.63831693    -0.06300
C1324       C  0.19516957  0.89975585  0.67076888    -0.07000
C1325       C  0.21943692  0.84599097  0.68764509    -0.06900
C1326       C  0.17331256  0.84639874  0.60472576    -0.32300
N1327       N  0.13886966  0.83694114  0.60258155     0.14200
C1328       C  0.12575031  0.83717102  0.63499608    -0.32300
H1329       H  0.09789020  0.83762705  0.64153654     0.16100
C1330       C  0.19958525  0.93471568  0.66714284    -0.31300
N1331       N  0.17271253  0.95271660  0.68352733     0.12900
C1332       C  0.15106258  0.92894356  0.69854967    -0.31300
C1333       C  0.24875304  0.83399119  0.70446013    -0.31600
N1334       N  0.23826895  0.81823851  0.73288844     0.13400
H1335       H  0.27564288  0.84069210  0.69835473     0.16000
C1336       C  0.20265508  0.82698484  0.73605931    -0.31600
H1337       H  0.18766649  0.83294865  0.75895489     0.16000
H1338       H  0.12771634  0.93566434  0.71399110     0.16000
H1339       H  0.18967487  0.85372445  0.58356474     0.16100
H1340       H  0.22089359  0.94665799  0.65346346     0.16000
C1341       C  0.09117978  0.79497431  0.52598948     0.86400
C1342       C  0.10811940  0.82473177  0.54833538    -0.53800
C1343       C  0.12611391  0.81438057  0.57551940     0.09300
C1344       C  0.12833827  0.77594159  0.57702816     0.20300
C1345       C  0.12274795  0.77182695  0.51495726    -0.54500
C1346       C  0.14307896  0.76281214  0.54148491     0.09500
C1347       C  0.06982299  0.77375214  0.55119938    -0.54100
C1348       C  0.08930358  0.76481856  0.57808662     0.10000
H1349       H  0.10538914  0.85160293  0.54402447     0.14500
H1350       H  0.14388373  0.76776425  0.59920340     0.00300
H1351       H  0.12745360  0.76199504  0.48940370     0.14800
H1352       H  0.04162503  0.76782861  0.54919599     0.14600
C1353       C  0.31165346  0.80104256  0.79822124     0.86400
C1354       C  0.28579374  0.82111412  0.77582852    -0.53800
C1355       C  0.26274699  0.80210203  0.75686684     0.09300
C1356       C  0.26970433  0.76267357  0.76108090     0.20300
C1357       C  0.28813074  0.77793304  0.81949597    -0.54500
C1358       C  0.26520882  0.75796648  0.80144526     0.09500
C1359       C  0.33229606  0.77748325  0.77146681    -0.54100
C1360       C  0.31139449  0.75672931  0.75128315     0.10000
H1361       H  0.28613064  0.84868225  0.77452345     0.14500
H1362       H  0.25149397  0.74644839  0.74523626     0.00300
H1363       H  0.28811932  0.77914247  0.84721941     0.14800
H1364       H  0.36041957  0.78007801  0.76563649     0.14600
C1365       C  0.17674164  0.74152274  0.53908180     0.29900
C1366       C  0.23678545  0.70363609  0.55073851     0.29900
C1367       C  0.17124034  0.70996625  0.55866631    -0.06300
C1368       C  0.19673110  0.72859370  0.50588804    -0.07000
C1369       C  0.20633861  0.75987758  0.55817972    -0.06900
C1370       C  0.20070722  0.69111104  0.56437259    -0.06300
C1371       C  0.22810778  0.70884342  0.51059506    -0.07000
C1372       C  0.23705864  0.74095366  0.56412887    -0.06900
C1373       C  0.18882557  0.66420147  0.58202146    -0.32300
N1374       N  0.15371990  0.66852488  0.59225371     0.14200
C1375       C  0.14266787  0.69514528  0.57430004    -0.32300
H1376       H  0.11562392  0.70114281  0.56885831     0.16100
C1377       C  0.24263450  0.70438323  0.97655698    -0.31300
N1378       N  0.22201494  0.72140749  0.95343518     0.12900
C1379       C  0.19443330  0.73587234  0.97167683    -0.31300
C1380       C  0.26430081  0.76434270  0.56532006    -0.31600
N1381       N  0.25097565  0.79628257  0.56337278     0.13400
H1382       H  0.29219047  0.75816878  0.56218577     0.16000
C1383       C  0.21614363  0.79317979  0.55644808    -0.31600
H1384       H  0.19979681  0.81314872  0.54685630     0.16000
H1385       H  0.17430332  0.75107205  0.96014226     0.16000
H1386       H  0.20412040  0.64133031  0.57918997     0.16100
H1387       H  0.26651514  0.68996144  0.96950253     0.16000
C1388       C  0.17491521  0.70003559  0.83249851     0.29900
C1389       C  0.23454639  0.73769349  0.81940012     0.29900
C1390       C  0.16908656  0.73161407  0.81287807    -0.06300
C1391       C  0.19477903  0.71297286  0.86519276    -0.07000
C1392       C  0.20479005  0.68167681  0.81279286    -0.06900
C1393       C  0.19842549  0.75018394  0.80630157    -0.06300
C1394       C  0.22599673  0.73250692  0.85964099    -0.07000
C1395       C  0.23516081  0.70059983  0.80590648    -0.06900
C1396       C  0.18673600  0.77625700  0.78755861    -0.32300
N1397       N  0.15168020  0.77215210  0.77804998     0.14200
C1398       C  0.14058866  0.74624070  0.79718009    -0.32300
H1399       H  0.11349656  0.74068378  0.80339350     0.16100
C1400       C  0.24155460  0.73576046  0.89289928    -0.31300
N1401       N  0.22163552  0.71836535  0.91651872     0.12900
C1402       C  0.19343546  0.70473733  0.89921706    -0.31300
C1403       C  0.26267540  0.67740845  0.80348637    -0.31600
N1404       N  0.24977787  0.64553680  0.80586553     0.13400
H1405       H  0.29045735  0.68369318  0.80545278     0.16000
C1406       C  0.21500662  0.64839355  0.81397753    -0.31600
H1407       H  0.19900867  0.62825389  0.82372226     0.16000
H1408       H  0.17331369  0.68947958  0.91100744     0.16000
H1409       H  0.20210943  0.79869007  0.78978523     0.16100
H1410       H  0.26571887  0.74957492  0.89911566     0.16000
O1411       O  0.53005707  0.49226988  0.00699441    -0.75400
O1412       O  0.07666400  0.00625621  0.97685464    -0.54300
C1413       C  0.05832017  0.50935847  0.00430979     0.78400
O1414       O  0.41658655  0.90967416  0.00313723    -0.60000
O1415       O  0.37276359  0.93925648  0.97742528    -0.53000
C1416       C  0.38475391  0.92192730  0.00167286     0.70400
O1417       O  0.53174831  0.92870032  0.99685548    -0.74500
O1418       O  0.07845939  0.92994306  0.96257837    -0.55100
C1419       C  0.06040729  0.91490998  0.98509843     0.76400
O1420       O  0.41392498  0.52089630  0.01469041    -0.59700
O1421       O  0.37525157  0.51395117  0.97068030    -0.52800
C1422       C  0.38460226  0.52719583  0.99991674     0.73000
Zr1423     Zr  0.47333945  0.51471066  0.99155960     2.54700
O1424       O  0.47618489  0.52717539  0.55290210    -0.80200
O1425       O  0.47822924  0.57679026  0.99643225    -0.93600
Zr1426     Zr  0.47424408  0.91351836  0.97367808     2.64700
O1427       O  0.46980176  0.86812848  0.51397849    -0.98600
O1428       O  0.48307523  0.85648389  0.94735042    -0.80700
O1429       O  0.50837798  0.96425909  0.98267847    -0.84000
O1430       O  0.44048775  0.96442188  0.98411053    -2.18700
O1431       O  0.41046572  0.52834364  0.86798807    -0.67400
O1432       O  0.36899215  0.49583597  0.89405003    -0.52000
C1433       C  0.37960163  0.51421182  0.86988594     0.71400
O1434       O  0.53061349  0.95381548  0.86165819    -0.60300
O1435       O  0.07900233  0.94105900  0.88809000    -0.52300
C1436       C  0.05931889  0.93695542  0.86204777     0.73200
O1437       O  0.41694022  0.91342711  0.85679011    -0.71700
O1438       O  0.37753569  0.92256066  0.90103747    -0.50400
C1439       C  0.38777647  0.90747429  0.87261929     0.74500
O1440       O  0.52848722  0.51683907  0.87259510    -0.67000
O1441       O  0.07579746  0.01764238  0.90491460    -0.54200
C1442       C  0.05545526  0.53259731  0.88455007     0.72900
Zr1443     Zr  0.46917308  0.52821077  0.89477074     2.77500
O1444       O  0.46235544  0.57002199  0.85125229    -0.97800
O1445       O  0.47334017  0.58605879  0.91990251    -0.78600
Zr1446     Zr  0.47569257  0.92751558  0.87650285     2.70100
O1447       O  0.47492115  0.91858586  0.81464470    -0.79900
O1448       O  0.49102201  0.86721111  0.87043842    -0.98900
Zr1449     Zr  0.54599062  0.97267996  0.93310131     2.21500
Zr1450     Zr  0.40435894  0.96894734  0.93522264     2.11100
O1451       O  0.43901622  0.97543573  0.88501902    -2.47600
O1452       O  0.50704235  0.97962907  0.88470041    -0.79600
O1453       O  0.43537233  0.52129286  0.94434797    -0.71800
O1454       O  0.51136427  0.92027718  0.92475903    -2.32800
O1455       O  0.50797845  0.52355310  0.94237321    -2.29000
O1456       O  0.43936129  0.91871176  0.92513264    -0.73600
H1457       H  0.42872344  0.96518289  0.50591591     0.78400
H1458       H  0.52706402  0.90085700  0.92108398     0.79500
H1459       H  0.42660601  0.97313246  0.86381778     0.81700
H1460       H  0.52246326  0.54365453  0.94578037     0.79300
H1461       H  0.50874582  0.85121625  0.94983369     0.42300
H1462       H  0.47205003  0.85585518  0.88337223     0.41300
H1463       H  0.47452720  0.94188141  0.80607686     0.41000
H1464       H  0.45435135  0.55743342  0.83030001     0.38900
H1465       H  0.44907862  0.59125358  0.92914856     0.42100
H1466       H  0.50007415  0.58320508  0.98403460     0.36800
H1467       H  0.47673145  0.00448381  0.56282876     0.43000
H1468       H  0.46127997  0.87859995  0.53601677     0.39400
H1469       H  0.44180692  0.58472173  0.85855824     0.44300
H1470       H  0.48309216  0.58264095  0.52075912     0.43000
H1471       H  0.45001509  0.85318304  0.50607874     0.43200
H1472       H  0.48572833  0.86068403  0.84632947     0.43500
C1473       C  0.33223823  0.82546209  0.82194303    -0.06200
C1474       C  0.31277257  0.85322471  0.83747841    -0.17300
C1475       C  0.32978548  0.88070182  0.85391030     0.11000
C1476       C  0.36693224  0.87943229  0.85743924    -0.06100
C1477       C  0.38582909  0.84976121  0.84644745    -0.17300
C1478       C  0.36882860  0.82229266  0.82985974     0.11000
S1479       S  0.30304047  0.91740940  0.86712644    -0.32300
S1480       S  0.39443369  0.78331728  0.82446632    -0.32300
H1481       H  0.36522692  0.76196492  0.83055281     0.29000
H1482       H  0.32851683  0.94136945  0.85745033     0.29000
H1483       H  0.28403115  0.85463874  0.83489188     0.19600
H1484       H  0.41411768  0.84765529  0.85159460     0.19600
C1485       C  0.06681462  0.87930461  0.99179131    -0.06200
C1486       C  0.08728713  0.85868615  0.96880516    -0.17300
C1487       C  0.08682968  0.82333125  0.97092347     0.11000
C1488       C  0.06838942  0.80920531  0.49843591    -0.06100
C1489       C  0.04042230  0.82893684  0.51351301    -0.17300
C1490       C  0.04520897  0.86397313  0.51617881     0.11000
S1491       S  0.10807181  0.79734353  0.93733948    -0.32300
S1492       S  0.03246567  0.88606904  0.55613376    -0.32300
H1493       H  0.06182389  0.90820208  0.55608833     0.29000
H1494       H  0.08823697  0.76795118  0.94395114     0.29000
H1495       H  0.10306983  0.86995922  0.94913401     0.19600
H1496       H  0.02346404  0.81839756  0.53280517     0.19600
C1497       C  0.31519392  0.53709032  0.78822511    -0.06200
C1498       C  0.35116818  0.53003979  0.78141246    -0.17300
C1499       C  0.37228142  0.51823767  0.80699766     0.11000
C1500       C  0.35718164  0.51571409  0.84002109    -0.06100
C1501       C  0.32012602  0.51400602  0.84373666    -0.17300
C1502       C  0.29856994  0.52268624  0.81684325     0.11000
S1503       S  0.41729519  0.50557489  0.79563727    -0.32300
S1504       S  0.25052114  0.52056134  0.82178115    -0.32300
H1505       H  0.25044750  0.50126679  0.85109376     0.29000
H1506       H  0.41241302  0.47267322  0.80741579     0.29000
H1507       H  0.36329154  0.53511038  0.75703797     0.19600
H1508       H  0.30820207  0.50808391  0.86801831     0.19600
C1509       C  0.31755347  0.90332601  0.58449777    -0.06200
C1510       C  0.35371693  0.90812092  0.59109911    -0.17300
C1511       C  0.37636278  0.91703762  0.56494283     0.11000
C1512       C  0.36212968  0.91995526  0.53184388    -0.06100
C1513       C  0.32525527  0.92400541  0.02838758    -0.17300
C1514       C  0.30272796  0.91816372  0.55561950     0.11000
S1515       S  0.42215546  0.92512387  0.57600155    -0.32300
S1516       S  0.25543794  0.92316991  0.04919418    -0.32300
H1517       H  0.24983776  0.94141975  0.58054278     0.29000
H1518       H  0.42225035  0.95722284  0.56182097     0.29000
H1519       H  0.36481160  0.90280003  0.61562204     0.19600
H1520       H  0.31380183  0.93039158  0.00424779     0.19600
C1521       C  0.05741742  0.56903639  0.88082304    -0.06200
C1522       C  0.07351119  0.59014730  0.90614284    -0.17300
C1523       C  0.07511551  0.62526426  0.90190929     0.11000
C1524       C  0.06116243  0.63805662  0.87185438    -0.06100
C1525       C  0.03362900  0.61893910  0.85622870    -0.17300
C1526       C  0.03802790  0.58382951  0.85473880     0.11000
S1527       S  0.09144307  0.65382108  0.93552244    -0.32300
S1528       S  0.02921025  0.56140146  0.81415423    -0.32300
H1529       H  0.55736329  0.53772495  0.81606637     0.29000
H1530       H  0.09629145  0.62894942  0.95969180     0.29000
H1531       H  0.08490118  0.57937026  0.92848830     0.19600
H1532       H  0.01879036  0.62928541  0.83559525     0.19600
C1533       C  0.33723148  0.61267568  0.55345622    -0.06200
C1534       C  0.34686385  0.58341534  0.57070494    -0.17300
C1535       C  0.35804051  0.55370537  0.55299232     0.11000
C1536       C  0.36283698  0.55365512  0.51732695    -0.06100
C1537       C  0.35792715  0.58399669  0.50052309    -0.17300
C1538       C  0.34684434  0.61393666  0.51846987     0.11000
S1539       S  0.36595813  0.01658899  0.57734662    -0.32300
S1540       S  0.35306611  0.65322526  0.49713452    -0.32300
H1541       H  0.35805304  0.67352787  0.52728869     0.29000
H1542       H  0.35795717  0.99276028  0.55061367     0.29000
H1543       H  0.34323860  0.58287655  0.59814379     0.19600
H1544       H  0.36605563  0.58516197  0.97396363     0.19600
C1545       C  0.06378507  0.91024284  0.83540219    -0.02400
C1546       C  0.05406361  0.91871279  0.80235377    -0.17300
C1547       C  0.04789035  0.89330854  0.77716020     0.11000
C1548       C  0.05426173  0.85908874  0.78448691    -0.06100
C1549       C  0.05410183  0.85114593  0.81890811    -0.17300
C1550       C  0.06383732  0.87588143  0.84365281     0.11000
S1551       S  0.03107725  0.90541187  0.73658112    -0.32300
S1552       S  0.07693407  0.86291025  0.88489563    -0.32300
H1553       H  0.06768331  0.82834571  0.88018847     0.29000
H1554       H  0.02248409  0.87207878  0.72481697     0.29000
H1555       H  0.04964253  0.94513603  0.79662634     0.19600
H1556       H  0.05324798  0.82465538  0.82531483     0.19600
C1557       C  0.06529277  0.53408371  0.53173749    -0.06200
C1558       C  0.05975231  0.56827103  0.52510627    -0.17300
C1559       C  0.05371797  0.59232247  0.55187401     0.11000
C1560       C  0.05809796  0.58247913  0.58595094    -0.06100
C1561       C  0.05622646  0.54761076  0.59191119    -0.17300
C1562       C  0.06299307  0.52358436  0.56548220     0.11000
S1563       S  0.04418344  0.63559723  0.54098757    -0.32300
S1564       S  0.06982410  0.97994479  0.57634444    -0.32300
H1565       H  0.09110887  0.97060303  0.54749812     0.29000
H1566       H  0.02711088  0.64508618  0.57205689     0.29000
H1567       H  0.05847965  0.57594432  0.99898435     0.19600
H1568       H  0.05414724  0.53905280  0.61766832     0.19600
C1569       C  0.57986065  0.10481211  0.11069839     0.86400
C1570       C  0.60841285  0.12442873  0.09080896    -0.53800
C1571       C  0.62917034  0.14554473  0.10953718     0.09300
C1572       C  0.61992034  0.14412520  0.14888741     0.20300
C1573       C  0.60242406  0.08511228  0.13630401    -0.54500
C1574       C  0.62415852  0.10437674  0.15626948     0.09500
C1575       C  0.55802362  0.13179655  0.13236260    -0.54100
C1576       C  0.57795727  0.15355528  0.15237419     0.10000
H1577       H  0.61270893  0.12181625  0.06338569     0.14500
H1578       H  0.63724340  0.16113569  0.16486644     0.00300
H1579       H  0.60457205  0.05767137  0.13638745     0.14800
H1580       H  0.52932096  0.13473558  0.13028229     0.14600
C1581       C  0.56187950  0.25407323  0.20013028     0.29900
C1582       C  0.56267858  0.18820379  0.16998462     0.29900
C1583       C  0.57855225  0.22628361  0.21975670    -0.06300
C1584       C  0.52262351  0.23765583  0.19381548    -0.07000
C1585       C  0.57787709  0.24929293  0.16452635    -0.06900
C1586       C  0.57952945  0.19339890  0.20468357    -0.06300
C1587       C  0.52310669  0.20381666  0.17776712    -0.07000
C1588       C  0.57803620  0.21625517  0.14955291    -0.06900
C1589       C  0.57792537  0.17184922  0.23095142    -0.32300
N1590       N  0.57757016  0.19000231  0.26089543     0.14200
C1591       C  0.57536294  0.22302655  0.25421661    -0.32300
H1592       H  0.56781354  0.24321876  0.27269473     0.16100
C1593       C  0.98667355  0.19473808  0.17318485    -0.31300
N1594       N  0.96390018  0.22029892  0.18594060     0.12900
C1595       C  0.98579693  0.24619009  0.19862420    -0.31300
C1596       C  0.57377300  0.21929790  0.11522291    -0.31600
N1597       N  0.57374798  0.25232988  0.10823202     0.13400
H1598       H  0.56718379  0.19874054  0.09703225     0.16000
C1599       C  0.57379814  0.27053492  0.13817739    -0.31600
H1600       H  0.56436862  0.29637344  0.14091385     0.16000
H1601       H  0.97588379  0.27010571  0.21003460     0.16000
H1602       H  0.57039748  0.14564459  0.22831683     0.16100
H1603       H  0.97761175  0.17084048  0.16149538     0.16000
C1604       C  0.57742805  0.33654539  0.26046797     0.86400
C1605       C  0.60538462  0.31580679  0.28012103    -0.53800
C1606       C  0.62714132  0.29531183  0.26103202     0.09300
C1607       C  0.61890293  0.29780235  0.22175462     0.20300
C1608       C  0.60085988  0.35676758  0.23597762    -0.54500
C1609       C  0.62336116  0.33783728  0.21577687     0.09500
C1610       C  0.55638169  0.31004549  0.23837040    -0.54100
C1611       C  0.57688132  0.28864370  0.21784542     0.10000
H1612       H  0.60902234  0.31717478  0.30755109     0.14500
H1613       H  0.63676719  0.28114612  0.20535177     0.00300
H1614       H  0.60252559  0.38431483  0.23699696     0.14800
H1615       H  0.52773360  0.30678894  0.24102624     0.14600
C1616       C  0.65457091  0.08738315  0.17726384     0.29900
C1617       C  0.71388651  0.07558674  0.21523388     0.29900
C1618       C  0.65291766  0.10023556  0.21483687    -0.06300
C1619       C  0.66419864  0.04739215  0.18153344    -0.07000
C1620       C  0.69042551  0.10156317  0.16495485    -0.06900
C1621       C  0.68313024  0.09420319  0.23381052    -0.06300
C1622       C  0.69523492  0.04222275  0.20121710    -0.07000
C1623       C  0.71971633  0.09557716  0.18363343    -0.06900
C1624       C  0.67288341  0.09465378  0.26756497    -0.32300
N1625       N  0.63800558  0.10299462  0.27068950     0.14200
C1626       C  0.62528911  0.10316370  0.23841318    -0.32300
H1627       H  0.59747774  0.10046171  0.23246102     0.16100
C1628       C  0.69966742  0.00717477  0.20458513    -0.31300
N1629       N  0.67277744  0.48952541  0.18877915     0.12900
C1630       C  0.65125957  0.01357655  0.17419463    -0.31300
C1631       C  0.74890357  0.10810700  0.16657158    -0.31600
N1632       N  0.73834318  0.12458235  0.13874093     0.13400
H1633       H  0.77581059  0.10117758  0.17194959     0.16000
C1634       C  0.70288335  0.11600089  0.13615119    -0.31600
H1635       H  0.68797905  0.11083395  0.11359777     0.16000
H1636       H  0.62801486  0.50712852  0.15915636     0.16000
H1637       H  0.68923361  0.08662779  0.28817867     0.16100
H1638       H  0.72107409  0.49491805  0.21755618     0.16000
C1639       C  0.81299782  0.13858914  0.07269183     0.86400
C1640       C  0.78480943  0.11983852  0.09413879    -0.53800
C1641       C  0.76289094  0.13983957  0.11394262     0.09300
C1642       C  0.77107788  0.17887298  0.10935364     0.20300
C1643       C  0.78982709  0.16170896  0.05083494    -0.54500
C1644       C  0.76736864  0.18319926  0.06876400     0.09500
C1645       C  0.83349897  0.16219313  0.09855161    -0.54100
C1646       C  0.81268219  0.18339244  0.11898049     0.10000
H1647       H  0.78229896  0.09229558  0.09407044     0.14500
H1648       H  0.75297718  0.19584888  0.12516755     0.00300
H1649       H  0.78776020  0.15858081  0.02337053     0.14800
H1650       H  0.86208320  0.15997058  0.10225228     0.14600
C1651       C  0.58751888  0.14932713  0.34507183     0.86400
C1652       C  0.60468215  0.11801465  0.32423956    -0.53800
C1653       C  0.62512052  0.12662688  0.29738416     0.09300
C1654       C  0.62879201  0.16480282  0.29475587     0.20300
C1655       C  0.61954114  0.17110954  0.35672305    -0.54500
C1656       C  0.64163591  0.17863725  0.33040200     0.09500
C1657       C  0.56900390  0.17065010  0.31832347    -0.54100
C1658       C  0.59048559  0.17740283  0.29180052     0.10000
H1659       H  0.60041923  0.09151355  0.32919164     0.14500
H1660       H  0.64591613  0.17165352  0.27280759     0.00300
H1661       H  0.62359345  0.18090372  0.38245920     0.14800
H1662       H  0.54107232  0.17822250  0.31912374     0.14600
C1663       C  0.82689133  0.20285344  0.15305978     0.29900
C1664       C  0.82597202  0.23676850  0.21726499     0.29900
C1665       C  0.81085195  0.18416467  0.18245234    -0.06300
C1666       C  0.86610395  0.21102835  0.16871727    -0.07000
C1667       C  0.81016977  0.23825490  0.15584091    -0.06900
C1668       C  0.81033237  0.20095552  0.21471795    -0.06300
C1669       C  0.86550118  0.22901002  0.20166135    -0.07000
C1670       C  0.81002132  0.25516113  0.18794998    -0.06900
C1671       C  0.81495537  0.17566416  0.23749631    -0.32300
N1672       N  0.81584465  0.14457412  0.22119245     0.14200
C1673       C  0.81556468  0.14997874  0.18760339    -0.32300
H1674       H  0.82269555  0.13084052  0.16787029     0.16100
C1675       C  0.90184970  0.23421335  0.21055008    -0.31300
N1676       N  0.92474354  0.22012496  0.18566719     0.12900
C1677       C  0.90297671  0.20588249  0.16047189    -0.31300
C1678       C  0.81379930  0.28932473  0.18246037    -0.31600
N1679       N  0.81356002  0.29439613  0.14881690     0.13400
H1680       H  0.82075754  0.30861454  0.20182773     0.16000
C1681       C  0.81336612  0.26328938  0.13265515    -0.31600
H1682       H  0.82157968  0.25884605  0.10654960     0.16000
H1683       H  0.91302392  0.19292856  0.13729543     0.16000
H1684       H  0.82391938  0.17997653  0.26321773     0.16100
H1685       H  0.91077180  0.24701000  0.23396760     0.16000
C1686       C  0.79835253  0.37458910  0.10021583     0.86400
C1687       C  0.78325930  0.34993833  0.07186562    -0.53800
C1688       C  0.76368248  0.32451210  0.08406895     0.09300
C1689       C  0.76057585  0.32559867  0.12282577     0.20300
C1690       C  0.76688489  0.38734922  0.12245860    -0.54500
C1691       C  0.74666499  0.36196957  0.13395331     0.09500
C1692       C  0.81978760  0.35020018  0.12276879    -0.54100
C1693       C  0.79942846  0.32433265  0.13415041     0.10000
H1694       H  0.78913980  0.35133902  0.04477250     0.14500
H1695       H  0.74431306  0.30434231  0.13227876     0.00300
H1696       H  0.76192628  0.41397077  0.12892965     0.14800
H1697       H  0.84833812  0.35089845  0.12688480     0.14600
C1698       C  0.79725910  0.06577927  0.27127107     0.86400
C1699       C  0.78183034  0.09149486  0.29880634    -0.53800
C1700       C  0.76325361  0.11703175  0.28577304     0.09300
C1701       C  0.76139122  0.11516989  0.24700882     0.20300
C1702       C  0.76604217  0.05338217  0.24927822    -0.54500
C1703       C  0.74689566  0.07908303  0.23677137     0.09500
C1704       C  0.82001761  0.08889345  0.24816090    -0.54100
C1705       C  0.80061050  0.11502246  0.23584722     0.10000
H1706       H  0.78645708  0.09048498  0.32604240     0.14500
H1707       H  0.74588155  0.13668029  0.23705794     0.00300
H1708       H  0.75980433  0.02674434  0.24483675     0.14800
H1709       H  0.84872741  0.08737334  0.24457829     0.14600
C1710       C  0.65423657  0.35501300  0.19527780     0.29900
C1711       C  0.71376958  0.36618914  0.15625180     0.29900
C1712       C  0.65298352  0.34234237  0.15783409    -0.06300
C1713       C  0.66397305  0.39494533  0.19100007    -0.07000
C1714       C  0.69002404  0.34035497  0.20697243    -0.06900
C1715       C  0.68305471  0.34826555  0.13831674    -0.06300
C1716       C  0.69516945  0.39975571  0.17076865    -0.07000
C1717       C  0.71943688  0.34599094  0.18764498    -0.06900
C1718       C  0.67331252  0.34639877  0.10472558    -0.32300
N1719       N  0.63886963  0.33694117  0.10258134     0.14200
C1720       C  0.62575031  0.33717091  0.13499586    -0.32300
H1721       H  0.59789020  0.33762710  0.14153632     0.16100
C1722       C  0.69958515  0.43471555  0.16714271    -0.31300
N1723       N  0.67271247  0.45271645  0.18352729     0.12900
C1724       C  0.65106248  0.42894340  0.19854952    -0.31300
C1725       C  0.74875301  0.33399114  0.20445997    -0.31600
N1726       N  0.73826894  0.31823854  0.23288833     0.13400
H1727       H  0.77564283  0.34069204  0.19835453     0.16000
C1728       C  0.70265505  0.32698479  0.23605918    -0.31600
H1729       H  0.68766641  0.33294848  0.25895475     0.16000
H1730       H  0.62771626  0.43566417  0.21399097     0.16000
H1731       H  0.68967484  0.35372451  0.08356457     0.16100
H1732       H  0.72089347  0.44665785  0.15346330     0.16000
C1733       C  0.59117980  0.29497425  0.02598934     0.86400
C1734       C  0.60811939  0.32473177  0.04833517    -0.53800
C1735       C  0.62611395  0.31438056  0.07551919     0.09300
C1736       C  0.62833838  0.27594154  0.07702796     0.20300
C1737       C  0.62274798  0.27182689  0.01495710    -0.54500
C1738       C  0.64307903  0.26281211  0.04148471     0.09500
C1739       C  0.56982307  0.27375207  0.05119924    -0.54100
C1740       C  0.58930372  0.26481847  0.07808645     0.10000
H1741       H  0.60538906  0.35160293  0.04402428     0.14500
H1742       H  0.64388388  0.26776415  0.09920316     0.00300
H1743       H  0.62745355  0.26199494  0.98940352     0.14800
H1744       H  0.54162511  0.26782851  0.04919587     0.14600
C1745       C  0.81165343  0.30104251  0.29822122     0.86400
C1746       C  0.78579374  0.32111411  0.27582850    -0.53800
C1747       C  0.76274698  0.30210207  0.25686674     0.09300
C1748       C  0.76970426  0.26267361  0.26108082     0.20300
C1749       C  0.78813063  0.27793301  0.31949591    -0.54500
C1750       C  0.76520869  0.25796650  0.30144519     0.09500
C1751       C  0.83229603  0.27748318  0.27146682    -0.54100
C1752       C  0.81139444  0.25672932  0.25128310     0.10000
H1753       H  0.78613064  0.34868224  0.27452349     0.14500
H1754       H  0.75149389  0.24644849  0.24523615     0.00300
H1755       H  0.78811926  0.27914238  0.34721936     0.14800
H1756       H  0.86041959  0.28007775  0.26563665     0.14600
C1757       C  0.67674169  0.24152264  0.03908159     0.29900
C1758       C  0.73678550  0.20363597  0.05073838     0.29900
C1759       C  0.67124035  0.20996613  0.05866605    -0.06300
C1760       C  0.69673125  0.22859364  0.00588789    -0.07000
C1761       C  0.70633864  0.25987745  0.05817958    -0.06900
C1762       C  0.70070722  0.19111095  0.06437245    -0.06300
C1763       C  0.72810792  0.20884336  0.01059495    -0.07000
C1764       C  0.73705872  0.24095355  0.06412872    -0.06900
C1765       C  0.68882559  0.16420141  0.08202135    -0.32300
N1766       N  0.65371988  0.16852476  0.09225350     0.14200
C1767       C  0.64266785  0.19514509  0.07429968    -0.32300
H1768       H  0.61562388  0.20114253  0.06885781     0.16100
C1769       C  0.74263434  0.20438337  0.47655700    -0.31300
N1770       N  0.72201474  0.22140760  0.45343521     0.12900
C1771       C  0.69443314  0.23587246  0.47167690    -0.31300
C1772       C  0.76430086  0.26434261  0.06531990    -0.31600
N1773       N  0.75097564  0.29628246  0.06337272     0.13400
H1774       H  0.79219053  0.25816873  0.06218564     0.16000
C1775       C  0.71614362  0.29317967  0.05644806    -0.31600
H1776       H  0.69979679  0.31314858  0.04685627     0.16000
H1777       H  0.67430324  0.25107226  0.46014235     0.16000
H1778       H  0.70412050  0.14133032  0.07918992     0.16100
H1779       H  0.76651505  0.18996165  0.46950256     0.16000
C1780       C  0.67491502  0.20003556  0.33249849     0.29900
C1781       C  0.73454629  0.23769345  0.31940007     0.29900
C1782       C  0.66908640  0.23161404  0.31287806    -0.06300
C1783       C  0.69477886  0.21297281  0.36519275    -0.07000
C1784       C  0.70478988  0.18167676  0.31279280    -0.06900
C1785       C  0.69842538  0.25018388  0.30630157    -0.06300
C1786       C  0.72599663  0.23250681  0.35964096    -0.07000
C1787       C  0.73516062  0.20059979  0.30590640    -0.06900
C1788       C  0.68673597  0.27625683  0.28755843    -0.32300
N1789       N  0.65168019  0.27215191  0.27804973     0.14200
C1790       C  0.64058858  0.24624058  0.29717990    -0.32300
H1791       H  0.61349647  0.24068367  0.30339322     0.16100
C1792       C  0.74155445  0.23576036  0.39289927    -0.31300
N1793       N  0.72163527  0.21836541  0.41651876     0.12900
C1794       C  0.69343518  0.20473744  0.39921711    -0.31300
C1795       C  0.76267518  0.17740839  0.30348619    -0.31600
N1796       N  0.74977764  0.14553675  0.30586540     0.13400
H1797       H  0.79045714  0.18369308  0.30545260     0.16000
C1798       C  0.71500642  0.14839348  0.31397742    -0.31600
H1799       H  0.69900848  0.12825381  0.32372211     0.16000
H1800       H  0.67331334  0.18947981  0.41100750     0.16000
H1801       H  0.70210945  0.29868986  0.28978498     0.16100
H1802       H  0.76571875  0.24957475  0.39911565     0.16000
O1803       O  0.03005719  0.99227010  0.50699459    -0.75400
O1804       O  0.57666401  0.50625625  0.47685467    -0.54300
C1805       C  0.55832042  0.00935868  0.50430980     0.78400
O1806       O  0.91658686  0.40967450  0.50313770    -0.60000
O1807       O  0.87276386  0.43925648  0.47742542    -0.53000
C1808       C  0.88475419  0.42192751  0.50167315     0.70400
O1809       O  0.03174868  0.42870074  0.49685555    -0.74500
O1810       O  0.57845976  0.42994316  0.46257846    -0.55100
C1811       C  0.56040758  0.41491024  0.48509855     0.76400
O1812       O  0.91392523  0.02089685  0.51468993    -0.59700
O1813       O  0.87525181  0.01395131  0.47067987    -0.52800
C1814       C  0.88460247  0.02719617  0.49991624     0.73000
Zr1815     Zr  0.97333970  0.01471081  0.49155934     2.54700
O1816       O  0.97618512  0.02717517  0.05290229    -0.80200
O1817       O  0.97822971  0.07679036  0.49643185    -0.93600
Zr1818     Zr  0.97424434  0.41351851  0.47367849     2.64700
O1819       O  0.96980150  0.36812809  0.01397793    -0.98600
O1820       O  0.98307536  0.35648401  0.44735093    -0.80700
O1821       O  0.00837817  0.46425930  0.48267850    -0.84000
O1822       O  0.94048796  0.46442208  0.48411053    -2.18700
O1823       O  0.91046583  0.02834295  0.36798765    -0.67400
O1824       O  0.86899229  0.99583544  0.39404982    -0.52000
C1825       C  0.87960172  0.01421116  0.36988561     0.71400
O1826       O  0.03061364  0.45381512  0.36165847    -0.60300
O1827       O  0.57900261  0.44105881  0.38809002    -0.52300
C1828       C  0.55931896  0.43695505  0.36204796     0.73200
O1829       O  0.91694060  0.41342643  0.35679056    -0.71700
O1830       O  0.87753584  0.42256045  0.40103767    -0.50400
C1831       C  0.88777670  0.40747387  0.37261961     0.74500
O1832       O  0.02848733  0.01683868  0.37259480    -0.67000
O1833       O  0.57579759  0.51764206  0.40491416    -0.54200
C1834       C  0.55545541  0.03259698  0.38454964     0.72900
Zr1835     Zr  0.96917320  0.02821045  0.39477039     2.77500
O1836       O  0.96235544  0.07002118  0.35125152    -0.97800
O1837       O  0.97334042  0.08605855  0.41990196    -0.78600
Zr1838     Zr  0.97569286  0.42751502  0.37650322     2.70100
O1839       O  0.97492114  0.41858501  0.31464513    -0.79900
O1840       O  0.99102255  0.36721065  0.37043870    -0.98900
Zr1841     Zr  0.04599081  0.47267989  0.43310131     2.21500
Zr1842     Zr  0.90435915  0.46894721  0.43522263     2.11100
O1843       O  0.93901645  0.47543517  0.38501896    -2.47600
O1844       O  0.00704251  0.47962859  0.38470038    -0.79600
O1845       O  0.93537251  0.02129284  0.44434770    -0.71800
O1846       O  0.01136458  0.42027701  0.42475944    -2.32800
O1847       O  0.00797862  0.02355299  0.44237288    -2.29000
O1848       O  0.93936152  0.41871158  0.42513303    -0.73600
H1849       H  0.92872330  0.46518241  0.00591591     0.78400
H1850       H  0.02706444  0.40085679  0.42108460     0.79500
H1851       H  0.92660629  0.47313178  0.36381782     0.81700
H1852       H  0.02246341  0.04365444  0.44577995     0.79300
H1853       H  0.00874590  0.35121621  0.44983451     0.42300
H1854       H  0.97205072  0.35585467  0.38337268     0.41300
H1855       H  0.97452692  0.44188052  0.30607723     0.41000
H1856       H  0.95435143  0.05743235  0.33029932     0.38900
H1857       H  0.94907884  0.09125351  0.42914788     0.42100
H1858       H  0.00007479  0.08320505  0.48403429     0.36800
H1859       H  0.97673230  0.50448370  0.06282887     0.43000
H1860       H  0.96127969  0.37859946  0.03601627     0.39400
H1861       H  0.94180687  0.08472089  0.35855731     0.44300
H1862       H  0.98309163  0.08264076  0.02075961     0.43000
H1863       H  0.95001483  0.35318270  0.00607816     0.43200
H1864       H  0.98572869  0.36068354  0.34632980     0.43500
C1865       C  0.83223823  0.32546196  0.32194309    -0.06200
C1866       C  0.81277265  0.35322463  0.33747844    -0.17300
C1867       C  0.82978565  0.38070167  0.35391039     0.11000
C1868       C  0.86693238  0.37943197  0.35743949    -0.06100
C1869       C  0.88582912  0.34976081  0.34644779    -0.17300
C1870       C  0.86882855  0.32229236  0.32986000     0.11000
S1871       S  0.80304071  0.41740929  0.36712648    -0.32300
S1872       S  0.89443341  0.28331685  0.32446682    -0.32300
H1873       H  0.86522644  0.26196461  0.33055287     0.29000
H1874       H  0.82851716  0.44136925  0.35745037     0.29000
H1875       H  0.78403124  0.35463875  0.33489189     0.19600
H1876       H  0.91411766  0.34765473  0.35159507     0.19600
C1877       C  0.56681471  0.37930487  0.49179144    -0.06200
C1878       C  0.58728708  0.35868635  0.46880527    -0.17300
C1879       C  0.58682961  0.32333144  0.47092360     0.11000
C1880       C  0.56838940  0.30920507  0.99843571    -0.06100
C1881       C  0.54042217  0.32893652  0.01351272    -0.17300
C1882       C  0.54520874  0.36397281  0.01617859     0.11000
S1883       S  0.60807181  0.29734367  0.43733972    -0.32300
S1884       S  0.53246534  0.38606862  0.05613357    -0.32300
H1885       H  0.56182328  0.40820202  0.05608802     0.29000
H1886       H  0.58823694  0.26795134  0.44395142     0.29000
H1887       H  0.60306978  0.36995942  0.44913411     0.19600
H1888       H  0.52346387  0.31839719  0.03280483     0.19600
C1889       C  0.81519385  0.03709039  0.28822520    -0.06200
C1890       C  0.85116803  0.03003970  0.28141239    -0.17300
C1891       C  0.87228129  0.01823724  0.30699739     0.11000
C1892       C  0.85718163  0.01571349  0.34002084    -0.06100
C1893       C  0.82012601  0.01400568  0.34373655    -0.17300
C1894       C  0.79856989  0.02268630  0.31684332     0.11000
S1895       S  0.91729489  0.00557423  0.29563661    -0.32300
S1896       S  0.75052108  0.02056168  0.32178125    -0.32300
H1897       H  0.75044737  0.00126685  0.35109364     0.29000
H1898       H  0.91241291  0.97267278  0.30741577     0.29000
H1899       H  0.86329131  0.03511029  0.25703788     0.19600
H1900       H  0.80820211  0.00808350  0.36801820     0.19600
C1901       C  0.81755344  0.40332593  0.08449773    -0.06200
C1902       C  0.85371692  0.40812072  0.09109897    -0.17300
C1903       C  0.87636274  0.41703723  0.06494257     0.11000
C1904       C  0.86212955  0.41995491  0.03184366    -0.06100
C1905       C  0.82525545  0.42400549  0.52838771    -0.17300
C1906       C  0.80272790  0.41816365  0.05561952     0.11000
S1907       S  0.92215546  0.42512323  0.07600125    -0.32300
S1908       S  0.75543804  0.42316968  0.54919392    -0.32300
H1909       H  0.74983810  0.44142033  0.08054289     0.29000
H1910       H  0.92225033  0.45722245  0.06182119     0.29000
H1911       H  0.86481161  0.40279984  0.11562189     0.19600
H1912       H  0.81380205  0.43039152  0.50424784     0.19600
C1913       C  0.55741744  0.06903609  0.38082273    -0.06200
C1914       C  0.57351111  0.09014705  0.40614255    -0.17300
C1915       C  0.57511528  0.12526401  0.40190901     0.11000
C1916       C  0.56116217  0.13805636  0.37185411    -0.06100
C1917       C  0.53362885  0.11893875  0.35622834    -0.17300
C1918       C  0.53802789  0.08382915  0.35473845     0.11000
S1919       S  0.59144252  0.15382094  0.43552223    -0.32300
S1920       S  0.52921048  0.06140106  0.31415392    -0.32300
H1921       H  0.05736367  0.03772479  0.31606610     0.29000
H1922       H  0.59629038  0.12894938  0.45969178     0.29000
H1923       H  0.58490113  0.07937002  0.42848801     0.19600
H1924       H  0.51879022  0.12928499  0.33559486     0.19600
C1925       C  0.83723171  0.11267565  0.05345651    -0.06200
C1926       C  0.84686412  0.08341539  0.07070537    -0.17300
C1927       C  0.85804068  0.05370534  0.05299285     0.11000
C1928       C  0.86283698  0.05365492  0.01732746    -0.06100
C1929       C  0.85792707  0.08399640  0.00052346    -0.17300
C1930       C  0.84684443  0.11393647  0.01847014     0.11000
S1931       S  0.86595822  0.51658915  0.07734742    -0.32300
S1932       S  0.85306641  0.15322503  0.99713472    -0.32300
H1933       H  0.85805329  0.17352771  0.02728887     0.29000
H1934       H  0.85795715  0.49276020  0.05061471     0.29000
H1935       H  0.84323888  0.08287672  0.09814423     0.19600
H1936       H  0.86605577  0.08516237  0.47396334     0.19600
C1937       C  0.56378511  0.41024253  0.33540234    -0.02400
C1938       C  0.55406374  0.41871258  0.30235394    -0.17300
C1939       C  0.54789058  0.39330838  0.27716026     0.11000
C1940       C  0.55426192  0.35908853  0.28448690    -0.06100
C1941       C  0.55410202  0.35114563  0.31890810    -0.17300
C1942       C  0.56383740  0.37588112  0.34365287     0.11000
S1943       S  0.53107750  0.40541177  0.23658121    -0.32300
S1944       S  0.57693432  0.36291006  0.38489568    -0.32300
H1945       H  0.56768627  0.32834493  0.38018763     0.29000
H1946       H  0.52248439  0.37207871  0.22481692     0.29000
H1947       H  0.54964270  0.44513585  0.29662663     0.19600
H1948       H  0.55324817  0.32465508  0.32531478     0.19600
C1949       C  0.56529257  0.03408351  0.03173742    -0.06200
C1950       C  0.55975209  0.06827083  0.02510618    -0.17300
C1951       C  0.55371790  0.09232232  0.05187388     0.11000
C1952       C  0.55809800  0.08247901  0.08595079    -0.06100
C1953       C  0.55622649  0.04761064  0.09191108    -0.17300
C1954       C  0.56299293  0.02358422  0.06548211     0.11000
S1955       S  0.54418344  0.13559710  0.04098734    -0.32300
S1956       S  0.56982432  0.47994466  0.07634442    -0.32300
H1957       H  0.59110860  0.47060271  0.04749784     0.29000
H1958       H  0.52711168  0.14508649  0.07205694     0.29000
H1959       H  0.55848027  0.07594458  0.49898433     0.19600
H1960       H  0.55414737  0.03905270  0.11766820     0.19600
C1961       C  0.57986071  0.10481218  0.61069843     0.86400
C1962       C  0.60841298  0.12442878  0.59080902    -0.53800
C1963       C  0.62917036  0.14554486  0.60953729     0.09300
C1964       C  0.61992027  0.14412537  0.64888750     0.20300
C1965       C  0.60242409  0.08511239  0.63630416    -0.54500
C1966       C  0.62415849  0.10437691  0.65626967     0.09500
C1967       C  0.55802360  0.13179663  0.63236256    -0.54100
C1968       C  0.57795720  0.15355541  0.65237420     0.10000
H1969       H  0.61270915  0.12181620  0.56338577     0.14500
H1970       H  0.63724328  0.16113597  0.66486651     0.00300
H1971       H  0.60457210  0.05767148  0.63638762     0.14800
H1972       H  0.52932095  0.13473560  0.63028214     0.14600
C1973       C  0.56187951  0.25407338  0.70013044     0.29900
C1974       C  0.56267858  0.18820393  0.66998472     0.29900
C1975       C  0.57855224  0.22628375  0.71975686    -0.06300
C1976       C  0.52262356  0.23765599  0.69381557    -0.07000
C1977       C  0.57787710  0.24929311  0.66452646    -0.06900
C1978       C  0.57952942  0.19339901  0.70468369    -0.06300
C1979       C  0.52310673  0.20381683  0.67776717    -0.07000
C1980       C  0.57803623  0.21625535  0.64955304    -0.06900
C1981       C  0.57792545  0.17184931  0.73095157    -0.32300
N1982       N  0.57757032  0.19000243  0.76089559     0.14200
C1983       C  0.57536303  0.22302670  0.75421680    -0.32300
H1984       H  0.56781365  0.24321888  0.77269495     0.16100
C1985       C  0.98667364  0.19473831  0.67318507    -0.31300
N1986       N  0.96390026  0.22029914  0.68594085     0.12900
C1987       C  0.98579708  0.24619028  0.69862444    -0.31300
C1988       C  0.57377292  0.21929807  0.61522302    -0.31600
N1989       N  0.57374778  0.25233003  0.60823213     0.13400
H1990       H  0.56718371  0.19874069  0.59703235     0.16000
C1991       C  0.57379798  0.27053508  0.63817749    -0.31600
H1992       H  0.56436813  0.29637350  0.64091396     0.16000
H1993       H  0.97588399  0.27010591  0.71003485     0.16000
H1994       H  0.57039772  0.14564463  0.72831703     0.16100
H1995       H  0.97761187  0.17084071  0.66149559     0.16000
C1996       C  0.57742787  0.33654559  0.76046813     0.86400
C1997       C  0.60538444  0.31580702  0.78012128    -0.53800
C1998       C  0.62714120  0.29531206  0.76103231     0.09300
C1999       C  0.61890286  0.29780258  0.72175489     0.20300
C2000       C  0.60085971  0.35676781  0.73597785    -0.54500
C2001       C  0.62336106  0.33783753  0.71577720     0.09500
C2002       C  0.55638159  0.31004567  0.73837056    -0.54100
C2003       C  0.57688127  0.28864387  0.71784561     0.10000
H2004       H  0.60902210  0.31717501  0.80755135     0.14500
H2005       H  0.63676714  0.28114637  0.70535202     0.00300
H2006       H  0.60252529  0.38431508  0.73699712     0.14800
H2007       H  0.52773351  0.30678913  0.74102641     0.14600
C2008       C  0.65457087  0.08738337  0.67726408     0.29900
C2009       C  0.71388653  0.07558694  0.71523408     0.29900
C2010       C  0.65291766  0.10023577  0.71483713    -0.06300
C2011       C  0.66419860  0.04739237  0.68153367    -0.07000
C2012       C  0.69042547  0.10156341  0.66495509    -0.06900
C2013       C  0.68313028  0.09420339  0.73381076    -0.06300
C2014       C  0.69523492  0.04222297  0.70121730    -0.07000
C2015       C  0.71971634  0.09557737  0.68363364    -0.06900
C2016       C  0.67288343  0.09465372  0.76756520    -0.32300
N2017       N  0.63800558  0.10299446  0.77068977     0.14200
C2018       C  0.62528914  0.10316366  0.73841344    -0.32300
H2019       H  0.59747777  0.10046162  0.73246127     0.16100
C2020       C  0.69966743  0.00717500  0.70458533    -0.31300
N2021       N  0.67277739  0.48952564  0.68877936     0.12900
C2022       C  0.65125950  0.01357676  0.67419492    -0.31300
C2023       C  0.74890356  0.10810718  0.66657177    -0.31600
N2024       N  0.73834312  0.12458249  0.63874111     0.13400
H2025       H  0.77581059  0.10117784  0.67194979     0.16000
C2026       C  0.70288326  0.11600112  0.63615143    -0.31600
H2027       H  0.68797884  0.11083430  0.61359808     0.16000
H2028       H  0.62801468  0.50712881  0.65915676     0.16000
H2029       H  0.68923364  0.08662763  0.78817885     0.16100
H2030       H  0.72107426  0.49491822  0.71755608     0.16000
C2031       C  0.81299772  0.13858929  0.57269187     0.86400
C2032       C  0.78480931  0.11983868  0.59413886    -0.53800
C2033       C  0.76289087  0.13983973  0.61394279     0.09300
C2034       C  0.77107788  0.17887313  0.60935383     0.20300
C2035       C  0.78982699  0.16170917  0.55083506    -0.54500
C2036       C  0.76736862  0.18319946  0.56876420     0.09500
C2037       C  0.83349897  0.16219323  0.59855165    -0.54100
C2038       C  0.81268220  0.18339251  0.61898060     0.10000
H2039       H  0.78229878  0.09229573  0.59407043     0.14500
H2040       H  0.75297725  0.19584903  0.62516782     0.00300
H2041       H  0.78776006  0.15858109  0.52337066     0.14800
H2042       H  0.86208322  0.15997074  0.60225221     0.14600
C2043       C  0.58751905  0.14932732  0.84507206     0.86400
C2044       C  0.60468218  0.11801471  0.82423982    -0.53800
C2045       C  0.62512051  0.12662680  0.79738435     0.09300
C2046       C  0.62879208  0.16480273  0.79475595     0.20300
C2047       C  0.61954135  0.17110970  0.85672312    -0.54500
C2048       C  0.64163606  0.17863723  0.83040199     0.09500
C2049       C  0.56900406  0.17065028  0.81832368    -0.54100
C2050       C  0.59048572  0.17740286  0.79180065     0.10000
H2051       H  0.60041913  0.09151364  0.82919201     0.14500
H2052       H  0.64591618  0.17165336  0.77280763     0.00300
H2053       H  0.62359360  0.18090416  0.88245918     0.14800
H2054       H  0.54107255  0.17822287  0.81912408     0.14600
C2055       C  0.82689141  0.20285356  0.65305983     0.29900
C2056       C  0.82597196  0.23676861  0.71726502     0.29900
C2057       C  0.81085210  0.18416473  0.68245236    -0.06300
C2058       C  0.86610402  0.21102850  0.66871737    -0.07000
C2059       C  0.81016981  0.23825501  0.65584092    -0.06900
C2060       C  0.81033237  0.20095560  0.71471793    -0.06300
C2061       C  0.86550116  0.22901017  0.70166143    -0.07000
C2062       C  0.81002126  0.25516118  0.68794998    -0.06900
C2063       C  0.81495539  0.17566428  0.73749629    -0.32300
N2064       N  0.81584482  0.14457423  0.72119249     0.14200
C2065       C  0.81556499  0.14997881  0.68760344    -0.32300
H2066       H  0.82269585  0.13084055  0.66787039     0.16100
C2067       C  0.90184964  0.23421354  0.71055024    -0.31300
N2068       N  0.92474360  0.22012518  0.68566740     0.12900
C2069       C  0.90297682  0.20588267  0.66047208    -0.31300
C2070       C  0.81379930  0.28932478  0.68246038    -0.31600
N2071       N  0.81356013  0.29439629  0.64881694     0.13400
H2072       H  0.82075753  0.30861456  0.70182777     0.16000
C2073       C  0.81336626  0.26328955  0.63265518    -0.31600
H2074       H  0.82158001  0.25884625  0.60654968     0.16000
H2075       H  0.91302408  0.19292878  0.63729563     0.16000
H2076       H  0.82391932  0.17997669  0.76321774     0.16100
H2077       H  0.91077162  0.24701016  0.73396782     0.16000
C2078       C  0.79835237  0.37458938  0.60021609     0.86400
C2079       C  0.78325920  0.34993859  0.57186585    -0.53800
C2080       C  0.76368242  0.32451233  0.58406917     0.09300
C2081       C  0.76057577  0.32559886  0.62282602     0.20300
C2082       C  0.76688474  0.38734946  0.62245889    -0.54500
C2083       C  0.74666487  0.36196977  0.63395361     0.09500
C2084       C  0.81978748  0.35020049  0.62276905    -0.54100
C2085       C  0.79942842  0.32433285  0.63415060     0.10000
H2086       H  0.78913977  0.35133927  0.54477275     0.14500
H2087       H  0.74431300  0.30434248  0.63227899     0.00300
H2088       H  0.76192618  0.41397101  0.62892999     0.14800
H2089       H  0.84833801  0.35089884  0.62688508     0.14600
C2090       C  0.79725923  0.06577943  0.77127106     0.86400
C2091       C  0.78183053  0.09149504  0.79880637    -0.53800
C2092       C  0.76325380  0.11703196  0.78577311     0.09300
C2093       C  0.76139131  0.11517007  0.74700887     0.20300
C2094       C  0.76604226  0.05338232  0.74927833    -0.54500
C2095       C  0.74689572  0.07908320  0.73677150     0.09500
C2096       C  0.82001770  0.08889361  0.74816085    -0.54100
C2097       C  0.80061057  0.11502262  0.73584722     0.10000
H2098       H  0.78645730  0.09048511  0.82604244     0.14500
H2099       H  0.74588163  0.13668043  0.73705796     0.00300
H2100       H  0.75980438  0.02674449  0.74483697     0.14800
H2101       H  0.84872752  0.08737358  0.74457818     0.14600
C2102       C  0.65423650  0.35501324  0.69527821     0.29900
C2103       C  0.71376949  0.36618935  0.65625219     0.29900
C2104       C  0.65298337  0.34234272  0.65783447    -0.06300
C2105       C  0.66397308  0.39494556  0.69100055    -0.07000
C2106       C  0.69002394  0.34035507  0.70697273    -0.06900
C2107       C  0.68305456  0.34826587  0.63831713    -0.06300
C2108       C  0.69516942  0.39975593  0.67076910    -0.07000
C2109       C  0.71943678  0.34599109  0.68764531    -0.06900
C2110       C  0.67331246  0.34639879  0.60472594    -0.32300
N2111       N  0.63886958  0.33694107  0.60258171     0.14200
C2112       C  0.62575020  0.33717094  0.63499624    -0.32300
H2113       H  0.59789009  0.33762684  0.64153669     0.16100
C2114       C  0.69958506  0.43471576  0.66714300    -0.31300
N2115       N  0.67271238  0.45271668  0.68352754     0.12900
C2116       C  0.65106249  0.42894364  0.69854992    -0.31300
C2117       C  0.74875292  0.33399130  0.70446030    -0.31600
N2118       N  0.73826884  0.31823855  0.73288855     0.13400
H2119       H  0.77564276  0.34069219  0.69835488     0.16000
C2120       C  0.70265497  0.32698479  0.73605943    -0.31600
H2121       H  0.68766644  0.33294864  0.75895505     0.16000
H2122       H  0.62771630  0.43566442  0.71399140     0.16000
H2123       H  0.68967483  0.35372441  0.58356493     0.16100
H2124       H  0.72089335  0.44665806  0.65346357     0.16000
C2125       C  0.59117975  0.29497432  0.52598951     0.86400
C2126       C  0.60811932  0.32473179  0.54833549    -0.53800
C2127       C  0.62611385  0.31438054  0.57551950     0.09300
C2128       C  0.62833824  0.27594154  0.57702816     0.20300
C2129       C  0.62274798  0.27182697  0.51495728    -0.54500
C2130       C  0.64307900  0.26281218  0.54148492     0.09500
C2131       C  0.56982296  0.27375209  0.55119934    -0.54100
C2132       C  0.58930357  0.26481850  0.57808656     0.10000
H2133       H  0.60538898  0.35160296  0.54402467     0.14500
H2134       H  0.64388367  0.26776410  0.59920339     0.00300
H2135       H  0.62745367  0.26199508  0.48940371     0.14800
H2136       H  0.54162499  0.26782862  0.54919599     0.14600
C2137       C  0.81165335  0.30104253  0.79822132     0.86400
C2138       C  0.78579363  0.32111412  0.77582861    -0.53800
C2139       C  0.76274688  0.30210206  0.75686690     0.09300
C2140       C  0.76970421  0.26267362  0.76108089     0.20300
C2141       C  0.78813060  0.27793298  0.81949598    -0.54500
C2142       C  0.76520868  0.25796651  0.80144523     0.09500
C2143       C  0.83229595  0.27748329  0.77146685    -0.54100
C2144       C  0.81139437  0.25672938  0.75128315     0.10000
H2145       H  0.78613052  0.34868224  0.77452355     0.14500
H2146       H  0.75149384  0.24644848  0.74523622     0.00300
H2147       H  0.78811918  0.27914231  0.84721942     0.14800
H2148       H  0.86041947  0.28007802  0.76563656     0.14600
C2149       C  0.67674171  0.24152280  0.53908184     0.29900
C2150       C  0.73678551  0.20363616  0.55073859     0.29900
C2151       C  0.67124043  0.20996631  0.55866631    -0.06300
C2152       C  0.69673122  0.22859385  0.50588812    -0.07000
C2153       C  0.70633867  0.25987767  0.55817977    -0.06900
C2154       C  0.70070728  0.19111110  0.56437262    -0.06300
C2155       C  0.72810787  0.20884355  0.51059517    -0.07000
C2156       C  0.73705872  0.24095376  0.56412894    -0.06900
C2157       C  0.68882564  0.16420150  0.58202149    -0.32300
N2158       N  0.65371994  0.16852491  0.59225371     0.14200
C2159       C  0.64266794  0.19514532  0.57430001    -0.32300
H2160       H  0.61562400  0.20114280  0.56885817     0.16100
C2161       C  0.74263447  0.20438323  0.97655682    -0.31300
N2162       N  0.72201481  0.22140734  0.95343502     0.12900
C2163       C  0.69443314  0.23587214  0.97167666    -0.31300
C2164       C  0.76430089  0.26434280  0.56532016    -0.31600
N2165       N  0.75097570  0.29628266  0.56337291     0.13400
H2166       H  0.79219055  0.25816888  0.56218594     0.16000
C2167       C  0.71614370  0.29317989  0.55644811    -0.31600
H2168       H  0.69979690  0.31314883  0.54685634     0.16000
H2169       H  0.67430314  0.25107182  0.96014207     0.16000
H2170       H  0.70412051  0.14133036  0.57919003     0.16100
H2171       H  0.76651526  0.18996164  0.96950237     0.16000
C2172       C  0.67491511  0.20003557  0.83249838     0.29900
C2173       C  0.73454626  0.23769351  0.81940006     0.29900
C2174       C  0.66908643  0.23161406  0.81287801    -0.06300
C2175       C  0.69477890  0.21297279  0.86519264    -0.07000
C2176       C  0.70478997  0.18167683  0.81279269    -0.06900
C2177       C  0.69842536  0.25018393  0.80630154    -0.06300
C2178       C  0.72599659  0.23250689  0.85964091    -0.07000
C2179       C  0.73516069  0.20059989  0.80590637    -0.06900
C2180       C  0.68673588  0.27625703  0.78755865    -0.32300
N2181       N  0.65168008  0.27215214  0.77805000     0.14200
C2182       C  0.64058853  0.24624073  0.79718010    -0.32300
H2183       H  0.61349644  0.24068385  0.80339358     0.16100
C2184       C  0.74155449  0.23576035  0.89289919    -0.31300
N2185       N  0.72163542  0.21836517  0.91651858     0.12900
C2186       C  0.69343539  0.20473713  0.89921689    -0.31300
C2187       C  0.76267532  0.17740856  0.80348636    -0.31600
N2188       N  0.74977785  0.14553690  0.80586556     0.13400
H2189       H  0.79045726  0.18369333  0.80545288     0.16000
C2190       C  0.71500660  0.14839359  0.81397747    -0.31600
H2191       H  0.69900866  0.12825391  0.82372215     0.16000
H2192       H  0.67331368  0.18947926  0.91100720     0.16000
H2193       H  0.70210926  0.29869012  0.78978547     0.16100
H2194       H  0.76571876  0.24957477  0.89911561     0.16000
O2195       O  0.03005734  0.99227002  0.00699409    -0.75400
O2196       O  0.57666361  0.50625617  0.97685478    -0.54300
C2197       C  0.55831998  0.00935835  0.00431000     0.78400
O2198       O  0.91658682  0.40967421  0.00313720    -0.60000
O2199       O  0.87276396  0.43925662  0.97742523    -0.53000
C2200       C  0.88475422  0.42192735  0.00167277     0.70400
O2201       O  0.03174842  0.42870043  0.99685574    -0.74500
O2202       O  0.57845933  0.42994302  0.96257818    -0.55100
C2203       C  0.56040723  0.41490992  0.98509821     0.76400
O2204       O  0.91392531  0.02089645  0.01469025    -0.59700
O2205       O  0.87525192  0.01395113  0.97068014    -0.52800
C2206       C  0.88460257  0.02719587  0.99991656     0.73000
Zr2207     Zr  0.97333971  0.01471079  0.99155938     2.54700
O2208       O  0.97618476  0.02717521  0.55290229    -0.80200
O2209       O  0.97822957  0.07679034  0.99643202    -0.93600
Zr2210     Zr  0.97424429  0.41351846  0.97367815     2.64700
O2211       O  0.96980171  0.36812837  0.51397852    -0.98600
O2212       O  0.98307559  0.35648397  0.94735063    -0.80700
O2213       O  0.00837812  0.46425925  0.98267840    -0.84000
O2214       O  0.94048801  0.46442202  0.98411045    -2.18700
O2215       O  0.91046619  0.02834347  0.86798768    -0.67400
O2216       O  0.86899252  0.99583610  0.89404987    -0.52000
C2217       C  0.87960202  0.01421181  0.86988567     0.71400
O2218       O  0.03061393  0.45381530  0.86165864    -0.60300
O2219       O  0.57900193  0.44105925  0.88808973    -0.52300
C2220       C  0.55931849  0.43695562  0.86204748     0.73200
O2221       O  0.91694059  0.41342662  0.85679027    -0.71700
O2222       O  0.87753596  0.42256067  0.90103748    -0.50400
C2223       C  0.88777674  0.40747406  0.87261941     0.74500
O2224       O  0.02848762  0.01683890  0.87259483    -0.67000
O2225       O  0.57579711  0.51764253  0.90491481    -0.54200
C2226       C  0.55545488  0.03259746  0.88455028     0.72900
Zr2227     Zr  0.96917348  0.02821070  0.89477043     2.77500
O2228       O  0.96235564  0.07002207  0.85125210    -0.97800
O2229       O  0.97334067  0.08605859  0.91990244    -0.78600
Zr2230     Zr  0.97569290  0.42751537  0.87650287     2.70100
O2231       O  0.97492132  0.41858578  0.81464469    -0.79900
O2232       O  0.99102220  0.36721091  0.87043843    -0.98900
Zr2233     Zr  0.04599089  0.47267993  0.93310128     2.21500
Zr2234     Zr  0.90435928  0.46894739  0.93522250     2.11100
O2235       O  0.93901659  0.47543555  0.88501888    -2.47600
O2236       O  0.00704276  0.47962884  0.88470020    -0.79600
O2237       O  0.93537268  0.02129294  0.94434767    -0.71800
O2238       O  0.01136453  0.42027715  0.92475914    -2.32800
O2239       O  0.00797873  0.02355315  0.94237300    -2.29000
O2240       O  0.93936154  0.41871176  0.92513266    -0.73600
H2241       H  0.92872311  0.46518271  0.50591599     0.78400
H2242       H  0.02706431  0.40085701  0.92108422     0.79500
H2243       H  0.92660637  0.47313222  0.86381777     0.81700
H2244       H  0.02246359  0.04365466  0.94578014     0.79300
H2245       H  0.00874619  0.35121640  0.94983395     0.42300
H2246       H  0.97205019  0.35585506  0.88337225     0.41300
H2247       H  0.97452761  0.44188132  0.80607687     0.41000
H2248       H  0.95435137  0.05743365  0.83029978     0.38900
H2249       H  0.94907906  0.09125342  0.92914838     0.42100
H2250       H  0.00007456  0.08320508  0.98403439     0.36800
H2251       H  0.97673011  0.50448373  0.56282892     0.43000
H2252       H  0.96127995  0.37859985  0.53601675     0.39400
H2253       H  0.94180724  0.08472187  0.85855821     0.44300
H2254       H  0.98309166  0.08264084  0.52075942     0.43000
H2255       H  0.95001494  0.35318296  0.50607883     0.43200
H2256       H  0.98572847  0.36068386  0.84632948     0.43500
C2257       C  0.83223815  0.32546199  0.82194321    -0.06200
C2258       C  0.81277262  0.35322477  0.83747843    -0.17300
C2259       C  0.82978563  0.38070184  0.85391033     0.11000
C2260       C  0.86693235  0.37943208  0.85743946    -0.06100
C2261       C  0.88582903  0.34976083  0.84644793    -0.17300
C2262       C  0.86882845  0.32229237  0.82986016     0.11000
S2263       S  0.80304081  0.41740953  0.86712644    -0.32300
S2264       S  0.89443347  0.28331693  0.82446659    -0.32300
H2265       H  0.86522662  0.26196460  0.83055281     0.29000
H2266       H  0.82851734  0.44136944  0.85745035     0.29000
H2267       H  0.78403122  0.35463896  0.83489178     0.19600
H2268       H  0.91411756  0.34765480  0.85159524     0.19600
C2269       C  0.56681455  0.37930457  0.99179114    -0.06200
C2270       C  0.58728699  0.35868606  0.96880499    -0.17300
C2271       C  0.58682957  0.32333116  0.97092333     0.11000
C2272       C  0.56838939  0.30920535  0.49843595    -0.06100
C2273       C  0.54042224  0.32893687  0.51351303    -0.17300
C2274       C  0.54520890  0.36397315  0.51617891     0.11000
S2275       S  0.60807191  0.29734342  0.93733949    -0.32300
S2276       S  0.53246578  0.38606906  0.55613396    -0.32300
H2277       H  0.56182405  0.40820206  0.55608845     0.29000
H2278       H  0.58823699  0.26795109  0.94395105     0.29000
H2279       H  0.60306968  0.36995911  0.94913383     0.19600
H2280       H  0.52346397  0.31839757  0.53280516     0.19600
C2281       C  0.81519404  0.03709058  0.78822515    -0.06200
C2282       C  0.85116828  0.03004011  0.78141242    -0.17300
C2283       C  0.87228162  0.01823798  0.80699749     0.11000
C2284       C  0.85718193  0.01571420  0.84002091    -0.06100
C2285       C  0.82012630  0.01400617  0.84373660    -0.17300
C2286       C  0.79857014  0.02268648  0.81684329     0.11000
S2287       S  0.91729539  0.00557544  0.79563679    -0.32300
S2288       S  0.75052134  0.02056144  0.82178117    -0.32300
H2289       H  0.75044783  0.00126642  0.85109346     0.29000
H2290       H  0.91241366  0.97267381  0.80741556     0.29000
H2291       H  0.86329157  0.03511067  0.75703789     0.19600
H2292       H  0.80820239  0.00808400  0.86801825     0.19600
C2293       C  0.81755318  0.40332631  0.58449800    -0.06200
C2294       C  0.85371664  0.40812126  0.59109934    -0.17300
C2295       C  0.87636254  0.41703775  0.56494301     0.11000
C2296       C  0.86212945  0.41995529  0.53184405    -0.06100
C2297       C  0.82525554  0.42400522  0.02838743    -0.17300
C2298       C  0.80272768  0.41816387  0.55561970     0.11000
S2299       S  0.92215529  0.42512371  0.57600173    -0.32300
S2300       S  0.75543830  0.42316999  0.04919419    -0.32300
H2301       H  0.74983714  0.44141944  0.58054282     0.29000
H2302       H  0.92225034  0.45722270  0.56182119     0.29000
H2303       H  0.86481128  0.40280041  0.61562230     0.19600
H2304       H  0.81380207  0.43039144  0.00424766     0.19600
C2305       C  0.55741719  0.06903652  0.88082326    -0.06200
C2306       C  0.57351110  0.09014739  0.90614298    -0.17300
C2307       C  0.57511563  0.12526434  0.90190936     0.11000
C2308       C  0.56116244  0.13805671  0.87185452    -0.06100
C2309       C  0.53362889  0.11893926  0.85622894    -0.17300
C2310       C  0.53802765  0.08382966  0.85473905     0.11000
S2311       S  0.59144347  0.15382113  0.93552243    -0.32300
S2312       S  0.52920987  0.06140160  0.81415452    -0.32300
H2313       H  0.05736375  0.03772493  0.81606618     0.29000
H2314       H  0.59629295  0.12894934  0.95969144     0.29000
H2315       H  0.58490104  0.07937033  0.92848845     0.19600
H2316       H  0.51879023  0.12928555  0.83559550     0.19600
C2317       C  0.83723155  0.11267581  0.55345644    -0.06200
C2318       C  0.84686387  0.08341544  0.57070516    -0.17300
C2319       C  0.85804047  0.05370544  0.55299255     0.11000
C2320       C  0.86283684  0.05365517  0.51732717    -0.06100
C2321       C  0.85792701  0.08399675  0.50052330    -0.17300
C2322       C  0.84684433  0.11393674  0.51847007     0.11000
S2323       S  0.86595806  0.51658891  0.57734670    -0.32300
S2324       S  0.85306621  0.15322529  0.49713459    -0.32300
H2325       H  0.85805316  0.17352797  0.52728871     0.29000
H2326       H  0.85795675  0.49276023  0.55061382     0.29000
H2327       H  0.84323859  0.08287662  0.59814402     0.19600
H2328       H  0.86605576  0.08516193  0.97396347     0.19600
C2329       C  0.56378474  0.41024299  0.83540198    -0.02400
C2330       C  0.55406322  0.41871283  0.80235354    -0.17300
C2331       C  0.54789001  0.39330851  0.77716003     0.11000
C2332       C  0.55426154  0.35908873  0.78448686    -0.06100
C2333       C  0.55410170  0.35114600  0.81890806    -0.17300
C2334       C  0.56383717  0.37588159  0.84365269     0.11000
S2335       S  0.53107688  0.40541169  0.73658092    -0.32300
S2336       S  0.57693423  0.36291059  0.88489547    -0.32300
H2337       H  0.56768616  0.32834543  0.88018755     0.29000
H2338       H  0.52248378  0.37207856  0.72481685     0.29000
H2339       H  0.54964208  0.44513604  0.79662604     0.19600
H2340       H  0.55324786  0.32465547  0.82531484     0.19600
C2341       C  0.56529320  0.03408374  0.53173723    -0.06200
C2342       C  0.55975269  0.06827107  0.52510608    -0.17300
C2343       C  0.55371813  0.09232242  0.55187386     0.11000
C2344       C  0.55809814  0.08247903  0.58595077    -0.06100
C2345       C  0.55622680  0.04761063  0.59191095    -0.17300
C2346       C  0.56299347  0.02358434  0.56548191     0.11000
S2347       S  0.54418336  0.13559710  0.54098737    -0.32300
S2348       S  0.56982450  0.47994465  0.57634414    -0.32300
H2349       H  0.59110901  0.47060282  0.54749767     0.29000
H2350       H  0.52711082  0.14508602  0.57205669     0.29000
H2351       H  0.55847954  0.07594423  0.99898439     0.19600
H2352       H  0.55414758  0.03905260  0.61766804     0.19600
C2353       C  0.57986057  0.60481204  0.11069842     0.86400
C2354       C  0.60841281  0.62442863  0.09080898    -0.53800
C2355       C  0.62917025  0.64554467  0.10953719     0.09300
C2356       C  0.61992024  0.64412515  0.14888740     0.20300
C2357       C  0.60242400  0.58511220  0.13630404    -0.54500
C2358       C  0.62415841  0.60437670  0.15626954     0.09500
C2359       C  0.55802353  0.63179649  0.13236259    -0.54100
C2360       C  0.57795717  0.65355524  0.15237418     0.10000
H2361       H  0.61270892  0.62181607  0.06338571     0.14500
H2362       H  0.63724331  0.66113566  0.16486643     0.00300
H2363       H  0.60457208  0.55767130  0.13638739     0.14800
H2364       H  0.52932088  0.63473550  0.13028227     0.14600
C2365       C  0.56187951  0.75407318  0.20013026     0.29900
C2366       C  0.56267854  0.68820375  0.16998462     0.29900
C2367       C  0.57855222  0.72628355  0.21975669    -0.06300
C2368       C  0.52262352  0.73765579  0.19381543    -0.07000
C2369       C  0.57787713  0.74929287  0.16452633    -0.06900
C2370       C  0.57952943  0.69339884  0.20468356    -0.06300
C2371       C  0.52310668  0.70381659  0.17776710    -0.07000
C2372       C  0.57803617  0.71625511  0.14955287    -0.06900
C2373       C  0.57792541  0.67184915  0.23095142    -0.32300
N2374       N  0.57757021  0.69000224  0.26089542     0.14200
C2375       C  0.57536294  0.72302649  0.25421661    -0.32300
H2376       H  0.56781356  0.74321868  0.27269476     0.16100
C2377       C  0.98667353  0.69473818  0.17318483    -0.31300
N2378       N  0.96390018  0.72029904  0.18594059     0.12900
C2379       C  0.98579700  0.74619017  0.19862420    -0.31300
C2380       C  0.57377282  0.71929785  0.11522286    -0.31600
N2381       N  0.57374784  0.75232986  0.10823200     0.13400
H2382       H  0.56718361  0.69874048  0.09703221     0.16000
C2383       C  0.57379814  0.77053488  0.13817740    -0.31600
H2384       H  0.56436856  0.79637339  0.14091395     0.16000
H2385       H  0.97588390  0.77010581  0.21003461     0.16000
H2386       H  0.57039753  0.64564452  0.22831684     0.16100
H2387       H  0.97761170  0.67084058  0.16149538     0.16000
C2388       C  0.57742807  0.83654537  0.26046793     0.86400
C2389       C  0.60538465  0.81580676  0.28012098    -0.53800
C2390       C  0.62714131  0.79531178  0.26103195     0.09300
C2391       C  0.61890289  0.79780236  0.22175456     0.20300
C2392       C  0.60085988  0.85676757  0.23597759    -0.54500
C2393       C  0.62336112  0.83783730  0.21577682     0.09500
C2394       C  0.55638172  0.81004545  0.23837038    -0.54100
C2395       C  0.57688133  0.78864369  0.21784537     0.10000
H2396       H  0.60902235  0.81717473  0.30755105     0.14500
H2397       H  0.63676713  0.78114617  0.20535162     0.00300
H2398       H  0.60252551  0.88431483  0.23699690     0.14800
H2399       H  0.52773365  0.80678887  0.24102629     0.14600
C2400       C  0.65457082  0.58738314  0.17726387     0.29900
C2401       C  0.71388649  0.57558676  0.21523388     0.29900
C2402       C  0.65291760  0.60023552  0.21483691    -0.06300
C2403       C  0.66419860  0.54739216  0.18153346    -0.07000
C2404       C  0.69042542  0.60156317  0.16495486    -0.06900
C2405       C  0.68313023  0.59420315  0.23381053    -0.06300
C2406       C  0.69523489  0.54222277  0.20121714    -0.07000
C2407       C  0.71971626  0.59557722  0.18363343    -0.06900
C2408       C  0.67288344  0.59465371  0.26756498    -0.32300
N2409       N  0.63800561  0.60299456  0.27068952     0.14200
C2410       C  0.62528910  0.60316363  0.23841322    -0.32300
H2411       H  0.59747772  0.60046163  0.23246112     0.16100
C2412       C  0.69966732  0.50717481  0.20458526    -0.31300
N2413       N  0.67277746  0.98952539  0.18877911     0.12900
C2414       C  0.65125955  0.51357657  0.17419461    -0.31300
C2415       C  0.74890346  0.60810711  0.16657158    -0.31600
N2416       N  0.73834303  0.62458234  0.13874089     0.13400
H2417       H  0.77581049  0.60117777  0.17194960     0.16000
C2418       C  0.70288322  0.61600081  0.13615117    -0.31600
H2419       H  0.68797887  0.61083386  0.11359778     0.16000
H2420       H  0.62801484  0.00712847  0.15915643     0.16000
H2421       H  0.68923367  0.58662774  0.28817866     0.16100
H2422       H  0.72107425  0.99491798  0.21755593     0.16000
C2423       C  0.81299772  0.63858919  0.07269178     0.86400
C2424       C  0.78480934  0.61983854  0.09413876    -0.53800
C2425       C  0.76289081  0.63983957  0.11394260     0.09300
C2426       C  0.77107776  0.67887299  0.10935365     0.20300
C2427       C  0.78982695  0.66170899  0.05083491    -0.54500
C2428       C  0.76736850  0.68319923  0.06876400     0.09500
C2429       C  0.83349888  0.66219320  0.09855158    -0.54100
C2430       C  0.81268207  0.68339244  0.11898049     0.10000
H2431       H  0.78229891  0.59229560  0.09407042     0.14500
H2432       H  0.75297706  0.69584889  0.12516758     0.00300
H2433       H  0.78776012  0.65858093  0.02337050     0.14800
H2434       H  0.86208312  0.65997074  0.10225223     0.14600
C2435       C  0.58751892  0.64932708  0.34507183     0.86400
C2436       C  0.60468221  0.61801460  0.32423955    -0.53800
C2437       C  0.62512057  0.62662684  0.29738416     0.09300
C2438       C  0.62879206  0.66480277  0.29475586     0.20300
C2439       C  0.61954118  0.67110948  0.35672305    -0.54500
C2440       C  0.64163592  0.67863721  0.33040199     0.09500
C2441       C  0.56900391  0.67065005  0.31832347    -0.54100
C2442       C  0.59048562  0.67740276  0.29180051     0.10000
H2443       H  0.60041929  0.59151349  0.32919164     0.14500
H2444       H  0.64591621  0.67165349  0.27280761     0.00300
H2445       H  0.62359349  0.68090365  0.38245920     0.14800
H2446       H  0.54107233  0.67822244  0.31912377     0.14600
C2447       C  0.82689128  0.70285344  0.15305978     0.29900
C2448       C  0.82597201  0.73676851  0.21726499     0.29900
C2449       C  0.81085194  0.68416466  0.18245236    -0.06300
C2450       C  0.86610393  0.71102834  0.16871724    -0.07000
C2451       C  0.81016973  0.73825489  0.15584092    -0.06900
C2452       C  0.81033232  0.70095554  0.21471795    -0.06300
C2453       C  0.86550114  0.72900998  0.20166135    -0.07000
C2454       C  0.81002130  0.75516112  0.18794998    -0.06900
C2455       C  0.81495530  0.67566422  0.23749631    -0.32300
N2456       N  0.81584464  0.64457416  0.22119250     0.14200
C2457       C  0.81556473  0.64997875  0.18760345    -0.32300
H2458       H  0.82269562  0.63084050  0.16787039     0.16100
C2459       C  0.90184963  0.73421335  0.21055012    -0.31300
N2460       N  0.92474353  0.72012508  0.18566719     0.12900
C2461       C  0.90297674  0.70588258  0.16047186    -0.31300
C2462       C  0.81379932  0.78932473  0.18246032    -0.31600
N2463       N  0.81356001  0.79439612  0.14881685     0.13400
H2464       H  0.82075757  0.80861457  0.20182765     0.16000
C2465       C  0.81336610  0.76328935  0.13265513    -0.31600
H2466       H  0.82157971  0.75884598  0.10654959     0.16000
H2467       H  0.91302400  0.69292871  0.13729539     0.16000
H2468       H  0.82391933  0.67997662  0.26321772     0.16100
H2469       H  0.91077164  0.74700996  0.23396770     0.16000
C2470       C  0.79835243  0.87458909  0.10021579     0.86400
C2471       C  0.78325928  0.84993826  0.07186558    -0.53800
C2472       C  0.76368248  0.82451201  0.08406891     0.09300
C2473       C  0.76057576  0.82559862  0.12282575     0.20300
C2474       C  0.76688477  0.88734926  0.12245846    -0.54500
C2475       C  0.74666489  0.86196959  0.13395321     0.09500
C2476       C  0.81978748  0.85020024  0.12276883    -0.54100
C2477       C  0.79942837  0.82433266  0.13415042     0.10000
H2478       H  0.78913983  0.85133895  0.04477246     0.14500
H2479       H  0.74431295  0.80434228  0.13227878     0.00300
H2480       H  0.76192623  0.91397081  0.12892952     0.14800
H2481       H  0.84833800  0.85089854  0.12688489     0.14600
C2482       C  0.79725908  0.56577928  0.27127105     0.86400
C2483       C  0.78183031  0.59149486  0.29880633    -0.53800
C2484       C  0.76325355  0.61703175  0.28577304     0.09300
C2485       C  0.76139115  0.61516990  0.24700884     0.20300
C2486       C  0.76604216  0.55338220  0.24927820    -0.54500
C2487       C  0.74689564  0.57908306  0.23677136     0.09500
C2488       C  0.82001758  0.58889352  0.24816091    -0.54100
C2489       C  0.80061045  0.61502252  0.23584726     0.10000
H2490       H  0.78645709  0.59048499  0.32604240     0.14500
H2491       H  0.74588144  0.63668028  0.23705799     0.00300
H2492       H  0.75980433  0.52674437  0.24483673     0.14800
H2493       H  0.84872739  0.58737345  0.24457831     0.14600
C2494       C  0.65423652  0.85501299  0.19527773     0.29900
C2495       C  0.71376953  0.86618914  0.15625175     0.29900
C2496       C  0.65298347  0.84234236  0.15783402    -0.06300
C2497       C  0.66397298  0.89494532  0.19099993    -0.07000
C2498       C  0.69002399  0.84035498  0.20697236    -0.06900
C2499       C  0.68305469  0.84826552  0.13831669    -0.06300
C2500       C  0.69516934  0.89975571  0.17076852    -0.07000
C2501       C  0.71943682  0.84599101  0.18764496    -0.06900
C2502       C  0.67331256  0.84639865  0.10472553    -0.32300
N2503       N  0.63886966  0.83694106  0.10258126     0.14200
C2504       C  0.62575027  0.83717086  0.13499576    -0.32300
H2505       H  0.59789015  0.83762695  0.14153617     0.16100
C2506       C  0.69958508  0.93471555  0.16714264    -0.31300
N2507       N  0.67271241  0.95271644  0.18352720     0.12900
C2508       C  0.65106243  0.92894337  0.19854939    -0.31300
C2509       C  0.74875293  0.83399121  0.20445999    -0.31600
N2510       N  0.73826887  0.81823850  0.23288830     0.13400
H2511       H  0.77564277  0.84069210  0.19835454     0.16000
C2512       C  0.70265497  0.82698472  0.23605911    -0.31600
H2513       H  0.68766634  0.83294847  0.25895468     0.16000
H2514       H  0.62771627  0.93566409  0.21399093     0.16000
H2515       H  0.68967492  0.85372440  0.08356455     0.16100
H2516       H  0.72089351  0.94665788  0.15346341     0.16000
C2517       C  0.59117969  0.79497416  0.02598928     0.86400
C2518       C  0.60811927  0.82473167  0.04833516    -0.53800
C2519       C  0.62611392  0.81438047  0.07551913     0.09300
C2520       C  0.62833828  0.77594147  0.07702791     0.20300
C2521       C  0.62274791  0.77182681  0.01495707    -0.54500
C2522       C  0.64307896  0.76281204  0.04148468     0.09500
C2523       C  0.56982295  0.77375198  0.05119919    -0.54100
C2524       C  0.58930359  0.76481841  0.07808641     0.10000
H2525       H  0.60538890  0.85160284  0.04402431     0.14500
H2526       H  0.64388375  0.76776409  0.09920311     0.00300
H2527       H  0.62745353  0.76199484  0.98940351     0.14800
H2528       H  0.54162499  0.76782849  0.04919583     0.14600
C2529       C  0.81165339  0.80104254  0.29822119     0.86400
C2530       C  0.78579372  0.82111411  0.27582844    -0.53800
C2531       C  0.76274697  0.80210204  0.25686670     0.09300
C2532       C  0.76970429  0.76267358  0.26108080     0.20300
C2533       C  0.78813057  0.77793305  0.31949590    -0.54500
C2534       C  0.76520868  0.75796649  0.30144517     0.09500
C2535       C  0.83229603  0.77748322  0.27146680    -0.54100
C2536       C  0.81139446  0.75672931  0.25128310     0.10000
H2537       H  0.78613062  0.84868224  0.27452342     0.14500
H2538       H  0.75149397  0.74644840  0.24523615     0.00300
H2539       H  0.78811910  0.77914253  0.34721935     0.14800
H2540       H  0.86041956  0.78007793  0.26563653     0.14600
C2541       C  0.67674162  0.74152258  0.03908158     0.29900
C2542       C  0.73678538  0.70363590  0.05073839     0.29900
C2543       C  0.67124026  0.70996607  0.05866607    -0.06300
C2544       C  0.69673112  0.72859356  0.00588786    -0.07000
C2545       C  0.70633861  0.75987740  0.05817953    -0.06900
C2546       C  0.70070712  0.69111089  0.06437246    -0.06300
C2547       C  0.72810777  0.70884325  0.01059495    -0.07000
C2548       C  0.73705863  0.74095347  0.06412870    -0.06900
C2549       C  0.68882548  0.66420134  0.08202136    -0.32300
N2550       N  0.65371977  0.66852471  0.09225350     0.14200
C2551       C  0.64266773  0.69514504  0.07429968    -0.32300
H2552       H  0.61562377  0.70114253  0.06885784     0.16100
C2553       C  0.74263440  0.70438346  0.47655694    -0.31300
N2554       N  0.72201474  0.72140766  0.45343515     0.12900
C2555       C  0.69443309  0.73587244  0.47167685    -0.31300
C2556       C  0.76430083  0.76434248  0.06531991    -0.31600
N2557       N  0.75097568  0.79628236  0.06337268     0.13400
H2558       H  0.79219050  0.75816856  0.06218567     0.16000
C2559       C  0.71614367  0.79317960  0.05644793    -0.31600
H2560       H  0.69979688  0.81314856  0.04685617     0.16000
H2561       H  0.67430311  0.75107215  0.46014233     0.16000
H2562       H  0.70412038  0.64133023  0.07918995     0.16100
H2563       H  0.76651515  0.68996182  0.46950245     0.16000
C2564       C  0.67491503  0.70003555  0.33249845     0.29900
C2565       C  0.73454626  0.73769344  0.31940000     0.29900
C2566       C  0.66908642  0.73161395  0.31287792    -0.06300
C2567       C  0.69477884  0.71297290  0.36519269    -0.07000
C2568       C  0.70478988  0.68167678  0.31279280    -0.06900
C2569       C  0.69842537  0.75018381  0.30630140    -0.06300
C2570       C  0.72599657  0.73250692  0.35964090    -0.07000
C2571       C  0.73516062  0.70059977  0.30590641    -0.06900
C2572       C  0.68673593  0.77625681  0.28755836    -0.32300
N2573       N  0.65168017  0.77215185  0.27804965     0.14200
C2574       C  0.64058858  0.74624052  0.29717985    -0.32300
H2575       H  0.61349647  0.74068368  0.30339330     0.16100
C2576       C  0.74155444  0.73576043  0.39289919    -0.31300
N2577       N  0.72163530  0.71836543  0.41651869     0.12900
C2578       C  0.69343525  0.70473742  0.39921700    -0.31300
C2579       C  0.76267516  0.67740837  0.30348623    -0.31600
N2580       N  0.74977762  0.64553674  0.30586543     0.13400
H2581       H  0.79045711  0.68369306  0.30545268     0.16000
C2582       C  0.71500639  0.64839350  0.31397739    -0.31600
H2583       H  0.69900841  0.62825384  0.32372209     0.16000
H2584       H  0.67331346  0.68947968  0.41100733     0.16000
H2585       H  0.70210936  0.79868986  0.28978495     0.16100
H2586       H  0.76571875  0.74957482  0.39911555     0.16000
O2587       O  0.03005723  0.49227018  0.50699440    -0.75400
O2588       O  0.57666423  0.00625632  0.47685455    -0.54300
C2589       C  0.55832024  0.50935863  0.50430994     0.78400
O2590       O  0.91658682  0.90967437  0.50313766    -0.60000
O2591       O  0.87276388  0.93925642  0.47742540    -0.53000
C2592       C  0.88475418  0.92192743  0.50167312     0.70400
O2593       O  0.03174865  0.92870067  0.49685554    -0.74500
O2594       O  0.57845980  0.92994322  0.46257851    -0.55100
C2595       C  0.56040763  0.91491026  0.48509861     0.76400
O2596       O  0.91392529  0.52089703  0.51468991    -0.59700
O2597       O  0.87525187  0.51395143  0.47067985    -0.52800
C2598       C  0.88460253  0.52719630  0.49991620     0.73000
Zr2599     Zr  0.97333974  0.51471095  0.49155928     2.54700
O2600       O  0.97618518  0.52717534  0.05290226    -0.80200
O2601       O  0.97822979  0.57679051  0.49643160    -0.93600
Zr2602     Zr  0.97424434  0.91351841  0.47367845     2.64700
O2603       O  0.96980142  0.86812800  0.01397793    -0.98600
O2604       O  0.98307541  0.85648392  0.44735092    -0.80700
O2605       O  0.00837817  0.96425920  0.48267851    -0.84000
O2606       O  0.94048795  0.96442195  0.48411052    -2.18700
O2607       O  0.91046587  0.52834286  0.36798760    -0.67400
O2608       O  0.86899225  0.49583549  0.39404985    -0.52000
C2609       C  0.87960172  0.51421112  0.36988558     0.71400
O2610       O  0.03061355  0.95381520  0.36165849    -0.60300
O2611       O  0.57900261  0.94105873  0.38808999    -0.52300
C2612       C  0.55931902  0.93695502  0.36204788     0.73200
O2613       O  0.91694049  0.91342640  0.35679045    -0.71700
O2614       O  0.87753572  0.92256045  0.40103755    -0.50400
C2615       C  0.88777656  0.90747387  0.37261948     0.74500
O2616       O  0.02848742  0.51683865  0.37259468    -0.67000
O2617       O  0.57579775  0.01764208  0.40491412    -0.54200
C2618       C  0.55545530  0.53259700  0.38454967     0.72900
Zr2619     Zr  0.96917326  0.52821040  0.39477030     2.77500
O2620       O  0.96235549  0.57002124  0.35125153    -0.97800
O2621       O  0.97334056  0.58605846  0.41990193    -0.78600
Zr2622     Zr  0.97569280  0.92751507  0.37650312     2.70100
O2623       O  0.97492095  0.91858501  0.31464500    -0.79900
O2624       O  0.99102237  0.86721066  0.37043854    -0.98900
Zr2625     Zr  0.04599079  0.97267987  0.43310132     2.21500
Zr2626     Zr  0.90435915  0.96894713  0.43522260     2.11100
O2627       O  0.93901644  0.97543523  0.38501896    -2.47600
O2628       O  0.00704248  0.97962865  0.38470040    -0.79600
O2629       O  0.93537258  0.52129285  0.44434761    -0.71800
O2630       O  0.01136450  0.92027699  0.42475938    -2.32800
O2631       O  0.00797870  0.52355301  0.44237278    -2.29000
O2632       O  0.93936154  0.91871151  0.42513295    -0.73600
H2633       H  0.92872314  0.96518233  0.00591590     0.78400
H2634       H  0.02706430  0.90085670  0.42108453     0.79500
H2635       H  0.92660631  0.97313188  0.36381780     0.81700
H2636       H  0.02246362  0.54365445  0.44577979     0.79300
H2637       H  0.00874595  0.85121614  0.44983451     0.42300
H2638       H  0.97205058  0.85585471  0.38337253     0.41300
H2639       H  0.97452696  0.94188047  0.30607701     0.41000
H2640       H  0.95435153  0.55743246  0.33029932     0.38900
H2641       H  0.94907891  0.59125353  0.42914766     0.42100
H2642       H  0.00007497  0.58320509  0.48403414     0.36800
H2643       H  0.97673146  0.00448353  0.06282891     0.43000
H2644       H  0.96127961  0.87859934  0.03601626     0.39400
H2645       H  0.94180686  0.58472091  0.35855733     0.44300
H2646       H  0.98309155  0.58264100  0.02075940     0.43000
H2647       H  0.95001468  0.85318267  0.00607816     0.43200
H2648       H  0.98572839  0.86068355  0.34632964     0.43500
C2649       C  0.83223818  0.82546193  0.32194306    -0.06200
C2650       C  0.81277256  0.85322455  0.33747844    -0.17300
C2651       C  0.82978549  0.88070161  0.35391040     0.11000
C2652       C  0.86693224  0.87943195  0.35743940    -0.06100
C2653       C  0.88582901  0.84976078  0.34644773    -0.17300
C2654       C  0.86882849  0.82229234  0.32985994     0.11000
S2655       S  0.80304051  0.91740917  0.36712670    -0.32300
S2656       S  0.89443342  0.78331684  0.32446661    -0.32300
H2657       H  0.86522649  0.76196461  0.33055287     0.29000
H2658       H  0.82851683  0.94136917  0.35745041     0.29000
H2659       H  0.78403114  0.85463859  0.33489187     0.19600
H2660       H  0.91411754  0.84765474  0.35159503     0.19600
C2661       C  0.56681477  0.87930488  0.49179148    -0.06200
C2662       C  0.58728710  0.85868635  0.46880524    -0.17300
C2663       C  0.58682956  0.82333145  0.47092356     0.11000
C2664       C  0.56838928  0.80920503  0.99843567    -0.06100
C2665       C  0.54042208  0.82893650  0.01351272    -0.17300
C2666       C  0.54520872  0.86397279  0.01617861     0.11000
S2667       S  0.60807184  0.79734363  0.43733972    -0.32300
S2668       S  0.53246516  0.88606856  0.05613355    -0.32300
H2669       H  0.56182306  0.90820200  0.05608810     0.29000
H2670       H  0.58823690  0.76795132  0.44395133     0.29000
H2671       H  0.60306980  0.86995941  0.44913406     0.19600
H2672       H  0.52346378  0.81839718  0.03280482     0.19600
C2673       C  0.81519378  0.53709033  0.28822517    -0.06200
C2674       C  0.85116797  0.53003959  0.28141237    -0.17300
C2675       C  0.87228128  0.51823714  0.30699736     0.11000
C2676       C  0.85718161  0.51571342  0.34002080    -0.06100
C2677       C  0.82012599  0.51400561  0.34373651    -0.17300
C2678       C  0.79856984  0.52268624  0.31684329     0.11000
S2679       S  0.91729491  0.50557415  0.29563661    -0.32300
S2680       S  0.75052099  0.52056160  0.32178125    -0.32300
H2681       H  0.75044727  0.50126694  0.35109375     0.29000
H2682       H  0.91241301  0.47267273  0.30741583     0.29000
H2683       H  0.86329123  0.53511022  0.25703785     0.19600
H2684       H  0.80820209  0.50808343  0.36801815     0.19600
C2685       C  0.81755333  0.90332594  0.08449769    -0.06200
C2686       C  0.85371684  0.90812072  0.09109890    -0.17300
C2687       C  0.87636264  0.91703716  0.06494249     0.11000
C2688       C  0.86212943  0.91995481  0.03184358    -0.06100
C2689       C  0.82525545  0.92400558  0.52838767    -0.17300
C2690       C  0.80272776  0.91816360  0.05561944     0.11000
S2691       S  0.92215544  0.92512313  0.07600105    -0.32300
S2692       S  0.75543804  0.92316962  0.54919387    -0.32300
H2693       H  0.74983795  0.94142025  0.08054285     0.29000
H2694       H  0.92225017  0.95722245  0.06182119     0.29000
H2695       H  0.86481156  0.90279985  0.11562181     0.19600
H2696       H  0.81380211  0.93039166  0.50424780     0.19600
C2697       C  0.55741742  0.56903608  0.38082273    -0.06200
C2698       C  0.57351102  0.59014702  0.40614261    -0.17300
C2699       C  0.57511529  0.62526399  0.40190902     0.11000
C2700       C  0.56116222  0.63805632  0.37185411    -0.06100
C2701       C  0.53362888  0.61893875  0.35622835    -0.17300
C2702       C  0.53802792  0.58382917  0.35473845     0.11000
S2703       S  0.59144257  0.65382085  0.43552225    -0.32300
S2704       S  0.52921052  0.56140116  0.31415388    -0.32300
H2705       H  0.05736387  0.53772485  0.31606599     0.29000
H2706       H  0.59629047  0.62894927  0.45969175     0.29000
H2707       H  0.58490091  0.57937002  0.42848813     0.19600
H2708       H  0.51879026  0.62928498  0.33559486     0.19600
C2709       C  0.83723163  0.61267570  0.05345642    -0.06200
C2710       C  0.84686400  0.58341545  0.07070525    -0.17300
C2711       C  0.85804065  0.55370540  0.05299281     0.11000
C2712       C  0.86283700  0.55365497  0.01732741    -0.06100
C2713       C  0.85792714  0.58399649  0.00052340    -0.17300
C2714       C  0.84684445  0.61393654  0.01847009     0.11000
S2715       S  0.86595840  0.01658904  0.07734741    -0.32300
S2716       S  0.85306645  0.65322515  0.99713475    -0.32300
H2717       H  0.85805334  0.67352775  0.02728894     0.29000
H2718       H  0.85795715  0.99276010  0.05061475     0.29000
H2719       H  0.84323870  0.58287677  0.09814411     0.19600
H2720       H  0.86605588  0.58516252  0.47396331     0.19600
C2721       C  0.56378517  0.91024250  0.33540228    -0.02400
C2722       C  0.55406382  0.91871257  0.30235390    -0.17300
C2723       C  0.54789060  0.89330839  0.27716022     0.11000
C2724       C  0.55426191  0.85908853  0.28448684    -0.06100
C2725       C  0.55410196  0.85114561  0.31890803    -0.17300
C2726       C  0.56383738  0.87588107  0.34365281     0.11000
S2727       S  0.53107734  0.90541189  0.23658125    -0.32300
S2728       S  0.57693440  0.86290996  0.38489554    -0.32300
H2729       H  0.56768581  0.82834494  0.38018762     0.29000
H2730       H  0.52248450  0.87207883  0.22481675     0.29000
H2731       H  0.54964282  0.94513586  0.29662661     0.19600
H2732       H  0.55324806  0.82465505  0.32531468     0.19600
C2733       C  0.56529247  0.53408352  0.03173742    -0.06200
C2734       C  0.55975188  0.56827082  0.02510618    -0.17300
C2735       C  0.55371777  0.59232231  0.05187394     0.11000
C2736       C  0.55809794  0.58247894  0.08595082    -0.06100
C2737       C  0.55622641  0.54761059  0.09191109    -0.17300
C2738       C  0.56299292  0.52358421  0.06548211     0.11000
S2739       S  0.54418345  0.63559710  0.04098754    -0.32300
S2740       S  0.56982410  0.97994463  0.07634441    -0.32300
H2741       H  0.59110848  0.97060265  0.04749790     0.29000
H2742       H  0.52711143  0.64508635  0.07205704     0.29000
H2743       H  0.55848003  0.57594448  0.49898435     0.19600
H2744       H  0.55414733  0.53905263  0.11766821     0.19600
C2745       C  0.57986070  0.60481213  0.61069845     0.86400
C2746       C  0.60841299  0.62442867  0.59080904    -0.53800
C2747       C  0.62917037  0.64554476  0.60953728     0.09300
C2748       C  0.61992028  0.64412534  0.64888749     0.20300
C2749       C  0.60242402  0.58511238  0.63630423    -0.54500
C2750       C  0.62415848  0.60437690  0.65626969     0.09500
C2751       C  0.55802360  0.63179666  0.63236254    -0.54100
C2752       C  0.57795721  0.65355541  0.65237418     0.10000
H2753       H  0.61270919  0.62181607  0.56338580     0.14500
H2754       H  0.63724332  0.66113591  0.66486646     0.00300
H2755       H  0.60457199  0.55767148  0.63638775     0.14800
H2756       H  0.52932095  0.63473570  0.63028217     0.14600
C2757       C  0.56187950  0.75407335  0.70013036     0.29900
C2758       C  0.56267855  0.68820391  0.66998469     0.29900
C2759       C  0.57855227  0.72628372  0.71975678    -0.06300
C2760       C  0.52262350  0.73765598  0.69381558    -0.07000
C2761       C  0.57787701  0.74929308  0.66452638    -0.06900
C2762       C  0.57952945  0.69339900  0.70468362    -0.06300
C2763       C  0.52310668  0.70381679  0.67776718    -0.07000
C2764       C  0.57803613  0.71625531  0.64955297    -0.06900
C2765       C  0.57792554  0.67184932  0.73095151    -0.32300
N2766       N  0.57757038  0.69000242  0.76089554     0.14200
C2767       C  0.57536307  0.72302669  0.75421673    -0.32300
H2768       H  0.56781366  0.74321890  0.77269483     0.16100
C2769       C  0.98667356  0.69473828  0.67318513    -0.31300
N2770       N  0.96390022  0.72029914  0.68594089     0.12900
C2771       C  0.98579703  0.74619027  0.69862449    -0.31300
C2772       C  0.57377275  0.71929799  0.61522297    -0.31600
N2773       N  0.57374763  0.75232995  0.60823204     0.13400
H2774       H  0.56718359  0.69874057  0.59703232     0.16000
C2775       C  0.57379784  0.77053503  0.63817739    -0.31600
H2776       H  0.56436809  0.79637350  0.64091381     0.16000
H2777       H  0.97588391  0.77010589  0.71003491     0.16000
H2778       H  0.57039780  0.64564463  0.72831697     0.16100
H2779       H  0.97761170  0.67084073  0.66149560     0.16000
C2780       C  0.57742774  0.83654552  0.76046810     0.86400
C2781       C  0.60538431  0.81580696  0.78012127    -0.53800
C2782       C  0.62714111  0.79531203  0.76103231     0.09300
C2783       C  0.61890282  0.79780258  0.72175490     0.20300
C2784       C  0.60085962  0.85676778  0.73597785    -0.54500
C2785       C  0.62336101  0.83783753  0.71577720     0.09500
C2786       C  0.55638150  0.81004560  0.73837043    -0.54100
C2787       C  0.57688125  0.78864384  0.71784554     0.10000
H2788       H  0.60902191  0.81717495  0.80755134     0.14500
H2789       H  0.63676717  0.78114640  0.70535207     0.00300
H2790       H  0.60252515  0.88431504  0.73699714     0.14800
H2791       H  0.52773340  0.80678904  0.74102611     0.14600
C2792       C  0.65457089  0.58738338  0.67726409     0.29900
C2793       C  0.71388653  0.57558694  0.71523411     0.29900
C2794       C  0.65291768  0.60023576  0.71483714    -0.06300
C2795       C  0.66419861  0.54739240  0.68153369    -0.07000
C2796       C  0.69042550  0.60156338  0.66495509    -0.06900
C2797       C  0.68313028  0.59420337  0.73381081    -0.06300
C2798       C  0.69523490  0.54222298  0.70121733    -0.07000
C2799       C  0.71971636  0.59557733  0.68363365    -0.06900
C2800       C  0.67288338  0.59465364  0.76756524    -0.32300
N2801       N  0.63800552  0.60299438  0.77068978     0.14200
C2802       C  0.62528913  0.60316361  0.73841343    -0.32300
H2803       H  0.59747778  0.60046158  0.73246121     0.16100
C2804       C  0.69966738  0.50717502  0.70458533    -0.31300
N2805       N  0.67277745  0.98952561  0.68877937     0.12900
C2806       C  0.65125948  0.51357682  0.67419489    -0.31300
C2807       C  0.74890359  0.60810714  0.66657177    -0.31600
N2808       N  0.73834315  0.62458250  0.63874114     0.13400
H2809       H  0.77581062  0.60117777  0.67194976     0.16000
C2810       C  0.70288330  0.61600110  0.63615144    -0.31600
H2811       H  0.68797893  0.61083428  0.61359807     0.16000
H2812       H  0.62801470  0.00712867  0.65915682     0.16000
H2813       H  0.68923353  0.58662754  0.78817893     0.16100
H2814       H  0.72107428  0.99491821  0.71755609     0.16000
C2815       C  0.81299768  0.63858927  0.57269186     0.86400
C2816       C  0.78480932  0.61983865  0.59413886    -0.53800
C2817       C  0.76289090  0.63983970  0.61394279     0.09300
C2818       C  0.77107787  0.67887310  0.60935381     0.20300
C2819       C  0.78982696  0.66170912  0.55083506    -0.54500
C2820       C  0.76736858  0.68319942  0.56876417     0.09500
C2821       C  0.83349895  0.66219323  0.59855163    -0.54100
C2822       C  0.81268221  0.68339253  0.61898059     0.10000
H2823       H  0.78229881  0.59229571  0.59407042     0.14500
H2824       H  0.75297719  0.69584899  0.62516778     0.00300
H2825       H  0.78776004  0.65858099  0.52337066     0.14800
H2826       H  0.86208320  0.65997070  0.60225217     0.14600
C2827       C  0.58751906  0.64932730  0.84507205     0.86400
C2828       C  0.60468220  0.61801468  0.82423982    -0.53800
C2829       C  0.62512052  0.62662678  0.79738436     0.09300
C2830       C  0.62879211  0.66480267  0.79475594     0.20300
C2831       C  0.61954137  0.67110965  0.85672312    -0.54500
C2832       C  0.64163608  0.67863718  0.83040199     0.09500
C2833       C  0.56900408  0.67065025  0.81832364    -0.54100
C2834       C  0.59048576  0.67740282  0.79180061     0.10000
H2835       H  0.60041919  0.59151360  0.82919198     0.14500
H2836       H  0.64591622  0.67165329  0.77280763     0.00300
H2837       H  0.62359364  0.68090407  0.88245920     0.14800
H2838       H  0.54107256  0.67822282  0.81912402     0.14600
C2839       C  0.82689144  0.70285355  0.65305983     0.29900
C2840       C  0.82597198  0.73676859  0.71726504     0.29900
C2841       C  0.81085210  0.68416473  0.68245236    -0.06300
C2842       C  0.86610404  0.71102854  0.66871736    -0.07000
C2843       C  0.81016985  0.73825501  0.65584092    -0.06900
C2844       C  0.81033243  0.70095560  0.71471796    -0.06300
C2845       C  0.86550118  0.72901018  0.70166146    -0.07000
C2846       C  0.81002126  0.75516115  0.68794999    -0.06900
C2847       C  0.81495546  0.67566426  0.73749632    -0.32300
N2848       N  0.81584481  0.64457422  0.72119247     0.14200
C2849       C  0.81556491  0.64997882  0.68760341    -0.32300
H2850       H  0.82269573  0.63084057  0.66787034     0.16100
C2851       C  0.90184967  0.73421355  0.71055030    -0.31300
N2852       N  0.92474358  0.72012524  0.68566740     0.12900
C2853       C  0.90297683  0.70588277  0.66047203    -0.31300
C2854       C  0.81379918  0.78932476  0.68246040    -0.31600
N2855       N  0.81356000  0.79439628  0.64881696     0.13400
H2856       H  0.82075736  0.80861455  0.70182780     0.16000
C2857       C  0.81336625  0.76328955  0.63265518    -0.31600
H2858       H  0.82158009  0.75884627  0.60654970     0.16000
H2859       H  0.91302413  0.69292887  0.63729559     0.16000
H2860       H  0.82391930  0.67997664  0.76321780     0.16100
H2861       H  0.91077168  0.74701010  0.73396792     0.16000
C2862       C  0.79835232  0.87458941  0.60021606     0.86400
C2863       C  0.78325918  0.84993858  0.57186582    -0.53800
C2864       C  0.76368235  0.82451235  0.58406917     0.09300
C2865       C  0.76057572  0.82559890  0.62282603     0.20300
C2866       C  0.76688471  0.88734952  0.62245887    -0.54500
C2867       C  0.74666486  0.86196982  0.63395361     0.09500
C2868       C  0.81978745  0.85020050  0.62276904    -0.54100
C2869       C  0.79942837  0.82433287  0.63415060     0.10000
H2870       H  0.78913984  0.85133922  0.54477273     0.14500
H2871       H  0.74431291  0.80434254  0.63227903     0.00300
H2872       H  0.76192621  0.91397107  0.62892997     0.14800
H2873       H  0.84833798  0.85089883  0.62688504     0.14600
C2874       C  0.79725922  0.56577944  0.77127108     0.86400
C2875       C  0.78183057  0.59149501  0.79880644    -0.53800
C2876       C  0.76325383  0.61703191  0.78577320     0.09300
C2877       C  0.76139133  0.61517007  0.74700894     0.20300
C2878       C  0.76604225  0.55338237  0.74927834    -0.54500
C2879       C  0.74689572  0.57908325  0.73677154     0.09500
C2880       C  0.82001767  0.58889363  0.74816086    -0.54100
C2881       C  0.80061057  0.61502263  0.73584724     0.10000
H2882       H  0.78645735  0.59048505  0.82604249     0.14500
H2883       H  0.74588163  0.63668046  0.73705809     0.00300
H2884       H  0.75980436  0.52674455  0.74483692     0.14800
H2885       H  0.84872747  0.58737356  0.74457815     0.14600
C2886       C  0.65423644  0.85501323  0.69527819     0.29900
C2887       C  0.71376947  0.86618930  0.65625218     0.29900
C2888       C  0.65298333  0.84234270  0.65783446    -0.06300
C2889       C  0.66397307  0.89494555  0.69100052    -0.07000
C2890       C  0.69002386  0.84035505  0.70697274    -0.06900
C2891       C  0.68305456  0.84826579  0.63831713    -0.06300
C2892       C  0.69516941  0.89975589  0.67076904    -0.07000
C2893       C  0.71943671  0.84599102  0.68764530    -0.06900
C2894       C  0.67331250  0.84639869  0.60472595    -0.32300
N2895       N  0.63886960  0.83694101  0.60258171     0.14200
C2896       C  0.62575015  0.83717098  0.63499622    -0.32300
H2897       H  0.59789003  0.83762689  0.64153666     0.16100
C2898       C  0.69958507  0.93471571  0.66714295    -0.31300
N2899       N  0.67271243  0.95271664  0.68352756     0.12900
C2900       C  0.65106251  0.92894362  0.69854992    -0.31300
C2901       C  0.74875282  0.83399120  0.70446029    -0.31600
N2902       N  0.73826872  0.81823850  0.73288857     0.13400
H2903       H  0.77564265  0.84069209  0.69835485     0.16000
C2904       C  0.70265486  0.82698487  0.73605949    -0.31600
H2905       H  0.68766636  0.83294880  0.75895511     0.16000
H2906       H  0.62771631  0.93566439  0.71399139     0.16000
H2907       H  0.68967491  0.85372429  0.58356495     0.16100
H2908       H  0.72089333  0.94665801  0.65346347     0.16000
C2909       C  0.59117974  0.79497431  0.52598949     0.86400
C2910       C  0.60811934  0.82473176  0.54833551    -0.53800
C2911       C  0.62611384  0.81438047  0.57551950     0.09300
C2912       C  0.62833819  0.77594145  0.57702811     0.20300
C2913       C  0.62274794  0.77182696  0.51495724    -0.54500
C2914       C  0.64307894  0.76281212  0.54148487     0.09500
C2915       C  0.56982290  0.77375204  0.55119929    -0.54100
C2916       C  0.58930349  0.76481840  0.57808648     0.10000
H2917       H  0.60538903  0.85160293  0.54402470     0.14500
H2918       H  0.64388363  0.76776397  0.59920333     0.00300
H2919       H  0.62745358  0.76199509  0.48940366     0.14800
H2920       H  0.54162494  0.76782858  0.54919590     0.14600
C2921       C  0.81165334  0.80104256  0.79822129     0.86400
C2922       C  0.78579360  0.82111412  0.77582857    -0.53800
C2923       C  0.76274681  0.80210202  0.75686689     0.09300
C2924       C  0.76970421  0.76267357  0.76108089     0.20300
C2925       C  0.78813060  0.77793302  0.81949597    -0.54500
C2926       C  0.76520866  0.75796649  0.80144523     0.09500
C2927       C  0.83229595  0.77748325  0.77146685    -0.54100
C2928       C  0.81139438  0.75672935  0.75128316     0.10000
H2929       H  0.78613045  0.84868225  0.77452351     0.14500
H2930       H  0.75149387  0.74644839  0.74523625     0.00300
H2931       H  0.78811920  0.77914240  0.84721941     0.14800
H2932       H  0.86041948  0.78007796  0.76563658     0.14600
C2933       C  0.67674165  0.74152275  0.53908179     0.29900
C2934       C  0.73678547  0.70363613  0.55073856     0.29900
C2935       C  0.67124035  0.70996623  0.55866628    -0.06300
C2936       C  0.69673120  0.72859380  0.50588806    -0.07000
C2937       C  0.70633859  0.75987760  0.55817976    -0.06900
C2938       C  0.70070721  0.69111102  0.56437255    -0.06300
C2939       C  0.72810789  0.70884354  0.51059511    -0.07000
C2940       C  0.73705864  0.74095370  0.56412897    -0.06900
C2941       C  0.68882557  0.66420143  0.58202136    -0.32300
N2942       N  0.65371990  0.66852483  0.59225366     0.14200
C2943       C  0.64266786  0.69514525  0.57430001    -0.32300
H2944       H  0.61562392  0.70114273  0.56885823     0.16100
C2945       C  0.74263437  0.70438316  0.97655683    -0.31300
N2946       N  0.72201479  0.72140738  0.95343501     0.12900
C2947       C  0.69443308  0.73587215  0.97167662    -0.31300
C2948       C  0.76430078  0.76434277  0.56532029    -0.31600
N2949       N  0.75097559  0.79628264  0.56337298     0.13400
H2950       H  0.79219044  0.75816888  0.56218603     0.16000
C2951       C  0.71614360  0.79317981  0.55644813    -0.31600
H2952       H  0.69979680  0.81314871  0.54685628     0.16000
H2953       H  0.67430309  0.75107181  0.96014200     0.16000
H2954       H  0.70412047  0.64133030  0.57918992     0.16100
H2955       H  0.76651511  0.68996150  0.96950240     0.16000
C2956       C  0.67491511  0.70003552  0.83249836     0.29900
C2957       C  0.73454625  0.73769348  0.81940004     0.29900
C2958       C  0.66908641  0.73161396  0.81287789    -0.06300
C2959       C  0.69477887  0.71297282  0.86519262    -0.07000
C2960       C  0.70478998  0.68167680  0.81279271    -0.06900
C2961       C  0.69842534  0.75018387  0.80630141    -0.06300
C2962       C  0.72599653  0.73250693  0.85964088    -0.07000
C2963       C  0.73516072  0.70059983  0.80590639    -0.06900
C2964       C  0.68673581  0.77625702  0.78755862    -0.32300
N2965       N  0.65168002  0.77215212  0.77805000     0.14200
C2966       C  0.64058850  0.74624067  0.79718005    -0.32300
H2967       H  0.61349641  0.74068385  0.80339358     0.16100
C2968       C  0.74155443  0.73576039  0.89289916    -0.31300
N2969       N  0.72163544  0.71836517  0.91651857     0.12900
C2970       C  0.69343543  0.70473713  0.89921687    -0.31300
C2971       C  0.76267534  0.67740848  0.80348642    -0.31600
N2972       N  0.74977785  0.64553685  0.80586562     0.13400
H2973       H  0.79045728  0.68369321  0.80545298     0.16000
C2974       C  0.71500659  0.64839357  0.81397746    -0.31600
H2975       H  0.69900861  0.62825390  0.82372213     0.16000
H2976       H  0.67331376  0.68947923  0.91100719     0.16000
H2977       H  0.70210914  0.79869014  0.78978545     0.16100
H2978       H  0.76571864  0.74957491  0.89911558     0.16000
O2979       O  0.03005734  0.49227006  0.00699393    -0.75400
O2980       O  0.57666380  0.00625618  0.97685474    -0.54300
C2981       C  0.55831983  0.50935837  0.00431006     0.78400
O2982       O  0.91658673  0.90967414  0.00313714    -0.60000
O2983       O  0.87276384  0.93925651  0.97742516    -0.53000
C2984       C  0.88475410  0.92192725  0.00167270     0.70400
O2985       O  0.03174838  0.92870035  0.99685572    -0.74500
O2986       O  0.57845933  0.92994300  0.96257817    -0.55100
C2987       C  0.56040722  0.91490992  0.98509821     0.76400
O2988       O  0.91392534  0.52089655  0.01469021    -0.59700
O2989       O  0.87525197  0.51395124  0.97068010    -0.52800
C2990       C  0.88460260  0.52719594  0.99991652     0.73000
Zr2991     Zr  0.97333974  0.51471093  0.99155931     2.54700
O2992       O  0.97618482  0.52717538  0.55290223    -0.80200
O2993       O  0.97822964  0.57679051  0.99643183    -0.93600
Zr2994     Zr  0.97424425  0.91351837  0.97367815     2.64700
O2995       O  0.96980177  0.86812829  0.51397848    -0.98600
O2996       O  0.98307540  0.85648392  0.94735043    -0.80700
O2997       O  0.00837811  0.96425915  0.98267843    -0.84000
O2998       O  0.94048792  0.96442191  0.98411047    -2.18700
O2999       O  0.91046616  0.52834338  0.86798763    -0.67400
O3000       O  0.86899249  0.49583600  0.89404981    -0.52000
C3001       C  0.87960199  0.51421171  0.86988561     0.71400
O3002       O  0.03061389  0.95381536  0.86165861    -0.60300
O3003       O  0.57900192  0.94105917  0.88808972    -0.52300
C3004       C  0.55931848  0.93695555  0.86204747     0.73200
O3005       O  0.91694059  0.91342661  0.85679028    -0.71700
O3006       O  0.87753588  0.92256064  0.90103743    -0.50400
C3007       C  0.88777671  0.90747405  0.87261936     0.74500
O3008       O  0.02848770  0.51683881  0.87259479    -0.67000
O3009       O  0.57579722  0.01764240  0.90491463    -0.54200
C3010       C  0.55545482  0.53259752  0.88455035     0.72900
Zr3011     Zr  0.96917354  0.52821066  0.89477032     2.77500
O3012       O  0.96235565  0.57002205  0.85125204    -0.97800
O3013       O  0.97334090  0.58605850  0.91990244    -0.78600
Zr3014     Zr  0.97569287  0.92751535  0.87650286     2.70100
O3015       O  0.97492135  0.91858592  0.81464467    -0.79900
O3016       O  0.99102227  0.86721090  0.87043840    -0.98900
Zr3017     Zr  0.04599079  0.97267995  0.93310130     2.21500
Zr3018     Zr  0.90435923  0.96894731  0.93522250     2.11100
O3019       O  0.93901657  0.97543554  0.88501891    -2.47600
O3020       O  0.00704268  0.97962886  0.88470021    -0.79600
O3021       O  0.93537273  0.52129304  0.94434756    -0.71800
O3022       O  0.01136445  0.92027716  0.92475914    -2.32800
O3023       O  0.00797879  0.52355310  0.94237291    -2.29000
O3024       O  0.93936153  0.91871169  0.92513265    -0.73600
H3025       H  0.92872314  0.96518256  0.50591598     0.78400
H3026       H  0.02706420  0.90085700  0.92108421     0.79500
H3027       H  0.92660635  0.97313225  0.86381780     0.81700
H3028       H  0.02246363  0.54365451  0.94578004     0.79300
H3029       H  0.00874595  0.85121617  0.94983389     0.42300
H3030       H  0.97205020  0.85585499  0.88337215     0.41300
H3031       H  0.97452741  0.94188150  0.80607695     0.41000
H3032       H  0.95435144  0.55743358  0.83029970     0.38900
H3033       H  0.94907929  0.59125347  0.92914826     0.42100
H3034       H  0.00007476  0.58320519  0.98403431     0.36800
H3035       H  0.97672927  0.00448356  0.56282900     0.43000
H3036       H  0.96127993  0.87859975  0.53601671     0.39400
H3037       H  0.94180719  0.58472174  0.85855817     0.44300
H3038       H  0.98309157  0.58264105  0.52075920     0.43000
H3039       H  0.95001508  0.85318284  0.50607875     0.43200
H3040       H  0.98572863  0.86068385  0.84632946     0.43500
C3041       C  0.83223816  0.82546202  0.82194313    -0.06200
C3042       C  0.81277260  0.85322475  0.83747843    -0.17300
C3043       C  0.82978564  0.88070180  0.85391033     0.11000
C3044       C  0.86693237  0.87943211  0.85743932    -0.06100
C3045       C  0.88582909  0.84976093  0.84644767    -0.17300
C3046       C  0.86882850  0.82229244  0.82985998     0.11000
S3047       S  0.80304084  0.91740944  0.86712667    -0.32300
S3048       S  0.89443355  0.78331703  0.82446655    -0.32300
H3049       H  0.86522672  0.76196469  0.83055279     0.29000
H3050       H  0.82851720  0.94136940  0.85745032     0.29000
H3051       H  0.78403119  0.85463890  0.83489187     0.19600
H3052       H  0.91411764  0.84765490  0.85159491     0.19600
C3053       C  0.56681457  0.87930455  0.99179117    -0.06200
C3054       C  0.58728698  0.85868604  0.96880501    -0.17300
C3055       C  0.58682943  0.82333114  0.97092329     0.11000
C3056       C  0.56838938  0.80920537  0.49843593    -0.06100
C3057       C  0.54042225  0.82893689  0.51351303    -0.17300
C3058       C  0.54520892  0.86397317  0.51617892     0.11000
S3059       S  0.60807173  0.79734333  0.93733944    -0.32300
S3060       S  0.53246560  0.88606899  0.55613395    -0.32300
H3061       H  0.56182391  0.90820194  0.55608860     0.29000
H3062       H  0.58823689  0.76795098  0.94395114     0.29000
H3063       H  0.60306970  0.86995910  0.94913386     0.19600
H3064       H  0.52346399  0.81839758  0.53280518     0.19600
C3065       C  0.81519397  0.53709051  0.78822511    -0.06200
C3066       C  0.85116817  0.53003998  0.78141233    -0.17300
C3067       C  0.87228156  0.51823786  0.80699740     0.11000
C3068       C  0.85718190  0.51571411  0.84002084    -0.06100
C3069       C  0.82012627  0.51400608  0.84373653    -0.17300
C3070       C  0.79857010  0.52268642  0.81684325     0.11000
S3071       S  0.91729535  0.50557537  0.79563676    -0.32300
S3072       S  0.75052132  0.52056135  0.82178118    -0.32300
H3073       H  0.75044782  0.50126650  0.85109357     0.29000
H3074       H  0.91241366  0.47267376  0.80741557     0.29000
H3075       H  0.86329139  0.53511057  0.75703778     0.19600
H3076       H  0.80820238  0.50808387  0.86801818     0.19600
C3077       C  0.81755316  0.90332630  0.58449797    -0.06200
C3078       C  0.85371661  0.90812121  0.59109933    -0.17300
C3079       C  0.87636253  0.91703768  0.56494297     0.11000
C3080       C  0.86212945  0.91995527  0.53184402    -0.06100
C3081       C  0.82525543  0.92400514  0.02838734    -0.17300
C3082       C  0.80272766  0.91816391  0.55561964     0.11000
S3083       S  0.92215531  0.92512361  0.57600156    -0.32300
S3084       S  0.75543814  0.92316991  0.04919415    -0.32300
H3085       H  0.74983716  0.94141938  0.58054279     0.29000
H3086       H  0.92225029  0.95722267  0.56182117     0.29000
H3087       H  0.86481121  0.90280035  0.61562229     0.19600
H3088       H  0.81380199  0.93039135  0.00424756     0.19600
C3089       C  0.55741709  0.56903658  0.88082327    -0.06200
C3090       C  0.57351100  0.59014745  0.90614300    -0.17300
C3091       C  0.57511550  0.62526438  0.90190938     0.11000
C3092       C  0.56116238  0.63805677  0.87185450    -0.06100
C3093       C  0.53362884  0.61893937  0.85622890    -0.17300
C3094       C  0.53802760  0.58382975  0.85473903     0.11000
S3095       S  0.59144329  0.65382113  0.93552248    -0.32300
S3096       S  0.52920990  0.56140174  0.81415449    -0.32300
H3097       H  0.05736376  0.53772480  0.81606610     0.29000
H3098       H  0.59629296  0.62894930  0.95969142     0.29000
H3099       H  0.58490096  0.57937037  0.92848845     0.19600
H3100       H  0.51879021  0.62928570  0.83559546     0.19600
C3101       C  0.83723154  0.61267581  0.55345642    -0.06200
C3102       C  0.84686383  0.58341543  0.57070513    -0.17300
C3103       C  0.85804039  0.55370544  0.55299247     0.11000
C3104       C  0.86283684  0.55365525  0.51732709    -0.06100
C3105       C  0.85792707  0.58399686  0.50052326    -0.17300
C3106       C  0.84684435  0.61393681  0.51847007     0.11000
S3107       S  0.86595804  0.01658897  0.57734689    -0.32300
S3108       S  0.85306629  0.65322548  0.49713480    -0.32300
H3109       H  0.85805305  0.67352806  0.52728901     0.29000
H3110       H  0.85795657  0.99276027  0.55061409     0.29000
H3111       H  0.84323856  0.58287663  0.59814398     0.19600
H3112       H  0.86605588  0.58516198  0.97396342     0.19600
C3113       C  0.56378472  0.91024293  0.83540195    -0.02400
C3114       C  0.55406327  0.91871279  0.80235351    -0.17300
C3115       C  0.54788999  0.89330846  0.77716001     0.11000
C3116       C  0.55426140  0.85908868  0.78448681    -0.06100
C3117       C  0.55410151  0.85114598  0.81890802    -0.17300
C3118       C  0.56383701  0.87588152  0.84365266     0.11000
S3119       S  0.53107690  0.90541164  0.73658088    -0.32300
S3120       S  0.57693402  0.86291047  0.88489545    -0.32300
H3121       H  0.56768557  0.82834542  0.88018764     0.29000
H3122       H  0.52248380  0.87207850  0.72481683     0.29000
H3123       H  0.54964220  0.94513601  0.79662603     0.19600
H3124       H  0.55324764  0.82465546  0.82531483     0.19600
C3125       C  0.56529312  0.53408368  0.53173730    -0.06200
C3126       C  0.55975256  0.56827099  0.52510611    -0.17300
C3127       C  0.55371812  0.59232235  0.55187391     0.11000
C3128       C  0.55809816  0.58247896  0.58595080    -0.06100
C3129       C  0.55622678  0.54761059  0.59191098    -0.17300
C3130       C  0.56299340  0.52358429  0.56548197     0.11000
S3131       S  0.54418338  0.63559706  0.54098755    -0.32300
S3132       S  0.56982431  0.97994461  0.57634392    -0.32300
H3133       H  0.59110912  0.97060289  0.54749762     0.29000
H3134       H  0.52711059  0.64508582  0.57205680     0.29000
H3135       H  0.55847928  0.57594422  0.99898439     0.19600
H3136       H  0.55414758  0.53905255  0.61766807     0.19600
loop_ 
_geom_bond_atom_site_label_1 
_geom_bond_atom_site_label_2 
_geom_bond_distance 
_geom_bond_site_symmetry_2 
_ccdc_geom_bond_type 
C1            C2   1.547       .  S
C1            C7   1.548       .  S
C1            C5   1.553       .  S
C1          C384   1.522       .  S
C2            H9   1.085       .  S
C2            C3   1.338       .  D
C3            C4   1.581       .  S
C3          N198   1.474       .  S
C4            C8   1.615       .  S
C4            C6   1.609       .  S
C4           H10   1.110       .  S
C5           H11   1.080       .  S
C5            C6   1.345       .  D
C6           C48   1.577       .  S
C7           H12   1.085       .  S
C7            C8   1.362       .  D
C8           C14   1.595       .  S
C13          C43   1.601       .  S
C13          C15   1.503       .  S
C13          C17   1.515       .  S
C13          C16   1.625       .  S
C14          C18   1.511       .  S
C14          C20   1.506       .  S
C14          C19   1.620       .  S
C15          C23   1.367       .  A
C15          C18   1.393       .  A
C16          C19   1.441       .  A
C16        C1595   1.425   1_455  A
C17          C31   1.369       .  A
C17          C20   1.397       .  A
C18          C21   1.366       .  A
C19        C1593   1.423   1_455  A
C20          C28   1.368       .  A
C21          N22   1.343       .  A
C21          H34   1.069       .  S
N22          C90   1.420       .  S
N22          C23   1.338       .  A
C23          H24   1.081       .  S
C25        C1587   1.423       .  A
C25          N26   1.384       .  A
C25          H35   1.082       .  S
N26          C27   1.386       .  A
N26         N108   1.466       .  S
C27        C1584   1.425       .  A
C27          H33   1.082       .  S
C28          N29   1.339       .  A
C28          H30   1.082       .  S
N29         C172   1.422       .  S
N29          C31   1.344       .  A
C31          H32   1.072       .  S
C36          C37   1.557       .  S
C36          C42   1.546       .  S
C36          C40   1.545       .  S
C36         C372   1.520       .  S
C37          H44   1.084       .  S
C37          C38   1.338       .  D
C38          C39   1.582       .  S
C38         N221   1.477       .  S
C39          C43   1.623       .  S
C39          C41   1.610       .  S
C39          H45   1.110       .  S
C40          H46   1.082       .  S
C40          C41   1.345       .  D
C41         C142   1.574       .  S
C42          H47   1.085       .  S
C42          C43   1.361       .  D
C48          C50   1.534       .  S
C48          C52   1.538       .  S
C48          C51   1.626       .  S
C49         C135   1.508       .  S
C49          C53   1.519       .  S
C49          C55   1.514       .  S
C49          C54   1.566       .  S
C50          C58   1.379       .  A
C50          C53   1.387       .  A
C51          C62   1.433       .  A
C51          C54   1.422       .  A
C52          C66   1.367       .  A
C52          C55   1.352       .  A
C53          C56   1.373       .  A
C54          C60   1.398       .  A
C55          C63   1.380       .  A
C56          N57   1.347       .  A
C56          H69   1.078       .  S
N57          C85   1.441       .  S
N57          C58   1.358       .  A
C58          H59   1.074       .  S
C60         N845   1.363   1_545  A
C60         H854   1.078   1_545  S
N61         C844   1.363       .  A
N61         C846   1.387       .  A
N61         N155   1.450       .  S
C62         N845   1.387   1_545  A
C62         H852   1.081       .  S
C63          N64   1.358       .  A
C63          H65   1.068       .  S
N64          C73   1.480       .  S
N64          C66   1.375       .  A
C66          H67   1.063       .  S
H68         C846   1.081       .  S
H70         C844   1.078       .  S
C71          C72   1.553       .  S
C71          C77   1.552       .  S
C71          C75   1.548       .  S
C71         C357   1.525       .  S
C72          H79   1.086       .  S
C72          C73   1.345       .  D
C73          C74   1.583       .  S
C74          C78   1.616       .  S
C74          C76   1.616       .  S
C74          H80   1.110       .  S
C75          H81   1.081       .  S
C75          C76   1.354       .  D
C76         C190   1.588       .  S
C77          H82   1.085       .  S
C77          C78   1.361       .  D
C78          C95   1.603       .  S
C83          C84   1.572       .  S
C83          C89   1.543       .  S
C83          C87   1.537       .  S
C83         C348   1.516       .  S
C84          H91   1.080       .  S
C84          C85   1.352       .  D
C85          C86   1.514       .  S
C86          C90   1.522       .  S
C86          C88   1.556       .  S
C86          H92   1.112       .  S
C87          H93   1.074       .  S
C87          C88   1.360       .  D
C88         C212   1.507       .  S
C89          H94   1.085       .  S
C89          C90   1.345       .  D
C95          C97   1.516       .  S
C95          C99   1.520       .  S
C95          C98   1.625       .  S
C96         C184   1.601       .  S
C96         C100   1.525       .  S
C96         C102   1.514       .  S
C96         C101   1.616       .  S
C97         C105   1.378       .  A
C97         C100   1.397       .  A
C98         C109   1.425       .  A
C98         C101   1.441       .  A
C99         C113   1.376       .  A
C99         C102   1.393       .  A
C100        C103   1.380       .  A
C101        C107   1.422       .  A
C102        C110   1.377       .  A
C103        N104   1.349       .  A
C103        H116   1.072       .  S
N104        C137   1.438       .  S
N104        C105   1.344       .  A
C105        H106   1.081       .  S
C107        N108   1.383       .  A
C107        H117   1.082       .  S
N108        C109   1.386       .  A
C109        H115   1.081       .  S
C110        N111   1.344       .  A
C110        H112   1.080       .  S
N111        C125   1.435       .  S
N111        C113   1.348       .  A
C113        H114   1.071       .  S
C118        C119   1.551       .  S
C118        C124   1.561       .  S
C118        C122   1.525       .  S
C118        C333   1.496       .  S
C119        H126   1.086       .  S
C119        C120   1.345       .  D
C120        C121   1.521       .  S
C120        N205   1.428       .  S
C121        C125   1.527       .  S
C121        C123   1.557       .  S
C121        H127   1.112       .  S
C122        H128   1.078       .  S
C122        C123   1.347       .  D
C123        C143   1.505       .  S
C124        H129   1.083       .  S
C124        C125   1.363       .  D
C130        C131   1.546       .  S
C130        C136   1.563       .  S
C130        C134   1.528       .  S
C130        C321   1.496       .  S
C131        H138   1.086       .  S
C131        C132   1.342       .  D
C132        C133   1.520       .  S
C132        N228   1.423       .  S
C133        C137   1.527       .  S
C133        C135   1.556       .  S
C133        H139   1.112       .  S
C134        H140   1.079       .  S
C134        C135   1.350       .  D
C136        H141   1.083       .  S
C136        C137   1.365       .  D
C142        C144   1.528       .  S
C142        C146   1.539       .  S
C142        C145   1.628       .  S
C143        C147   1.513       .  S
C143        C149   1.513       .  S
C143        C148   1.566       .  S
C144        C152   1.374       .  A
C144        C147   1.381       .  A
C145        C156   1.433       .  A
C145        C148   1.423       .  A
C146        C160   1.367       .  A
C146        C149   1.355       .  A
C147        C150   1.369       .  A
C148        C154   1.398       .  A
C149        C157   1.380       .  A
C150        N151   1.346       .  A
C150        H163   1.077       .  S
N151        C167   1.436       .  S
N151        C152   1.357       .  A
C152        H153   1.071       .  S
C154        N155   1.362       .  A
C154        H164   1.078       .  S
N155        C156   1.388       .  A
C156        H162   1.081       .  S
C157        N158   1.356       .  A
C157        H159   1.069       .  S
N158        C179   1.483       .  S
N158        C160   1.378       .  A
C160        H161   1.068       .  S
C165        C166   1.566       .  S
C165        C171   1.543       .  S
C165        C169   1.532       .  S
C165        C312   1.511   1_554  S
C166        H173   1.081       .  S
C166        C167   1.346       .  D
C167        C168   1.515       .  S
C168        C172   1.528       .  S
C168        C170   1.555       .  S
C168        H174   1.112       .  S
C169        H175   1.068   1_554  S
C169        C170   1.356       .  D
C170        C189   1.508       .  S
C171        H176   1.085       .  S
C171        C172   1.349       .  D
C177        C178   1.552       .  S
C177        C183   1.559       .  S
C177        C181   1.537       .  S
C177        C297   1.521       .  S
C178        H185   1.086       .  S
C178        C179   1.349       .  D
C179        C180   1.586       .  S
C180        C184   1.616       .  S
C180        C182   1.609       .  S
C180        H186   1.110       .  S
C181        H187   1.086       .  S
C181        C182   1.348       .  D
C182        C213   1.579       .  S
C183        H188   1.081       .  S
C183        C184   1.364       .  D
C189        C191   1.504       .  S
C189        C193   1.511       .  S
C189        C192   1.555       .  S
C190        C194   1.539       .  S
C190        C196   1.532       .  S
C190        C195   1.633       .  S
C191        C199   1.373       .  A
C191        C194   1.352       .  A
C192        C195   1.423       .  A
C192        C595   1.389   1_554  A
C193        C207   1.365       .  A
C193        C196   1.394       .  A
C194        C197   1.365       .  A
C195        C593   1.437   1_554  A
C196        C204   1.376       .  A
C197        N198   1.377       .  A
C197        H210   1.063       .  S
N198        C199   1.355       .  A
C199        H200   1.065       .  S
C201        C587   1.437       .  A
C201        N202   1.391       .  A
C201        H211   1.081       .  S
N202        C203   1.355       .  A
N202        N225   1.447       .  S
C203        C584   1.389       .  A
C203        H209   1.077       .  S
C204        N205   1.353       .  A
C204        H206   1.075       .  S
N205        C207   1.340       .  A
C207        H208   1.077       .  S
C212        C214   1.508       .  S
C212        C216   1.511       .  S
C212        C215   1.554       .  S
C213        C217   1.539       .  S
C213        C219   1.524       .  S
C213        C218   1.629       .  S
C214        C222   1.375       .  A
C214        C217   1.351       .  A
C215        C226   1.389       .  A
C215        C218   1.422       .  A
C216        C230   1.363       .  A
C216        C219   1.393       .  A
C217        C220   1.363       .  A
C218        C224   1.435       .  A
C219        C227   1.371       .  A
C220        N221   1.377       .  A
C220        H233   1.055       .  S
N221        C222   1.358       .  A
C222        H223   1.067       .  S
C224        N225   1.390       .  A
C224        H234   1.081       .  S
N225        C226   1.359       .  A
C226        H232   1.079       .  S
C227        N228   1.351       .  A
C227        H229   1.073       .  S
N228        C230   1.339       .  A
C230        H231   1.077       .  S
O235       Zr247   2.391   1_565  S
O235       C1805   1.262   1_565  A
O236      Zr1841   2.416       .  S
O236       C1021   1.270       .  A
C237       O1803   1.262   1_545  A
C237       O1020   1.270       .  A
C237        C773   1.439       .  S
O238       Zr250   2.445       .  S
O238        C240   1.286       .  A
O239       Zr274   2.378       .  S
O239        C240   1.280       .  A
C240        C728   1.452       .  S
O241       Zr250   2.413       .  S
O241       C1811   1.270       .  A
O242      Zr1841   2.415       .  S
O242        C243   1.275       .  A
C243       O1809   1.270       .  A
C243        C309   1.454       .  S
O244       Zr247   2.399       .  S
O244        C246   1.276       .  A
O245      Zr1058   2.437   1_545  S
O245        C246   1.288       .  A
C246        C752   1.455       .  S
Zr247       O249   2.443       .  S
Zr247       O640   2.434       .  S
Zr247       O277   2.371       .  S
Zr247       O279   2.352       .  S
Zr247      O1037   2.379   1_545  S
Zr247      O1038   2.340   1_545  S
O248       Zr639   2.434   1_554  S
O248       H1075   0.990       .  S
O249        H290   0.987       .  S
O249        H686   0.989       .  S
Zr250       O252   2.438       .  S
Zr250       O643   2.445       .  S
Zr250       O254   2.374       .  S
Zr250       O253   2.386       .  S
Zr250       O278   2.382       .  S
Zr250       O280   2.338       .  S
O251       Zr642   2.445   1_554  S
O251        H292   0.987       .  S
O251        H295   0.990       .  S
O252        H285   0.989       .  S
O253       Zr273   2.424       .  S
O253      Zr1031   2.379       .  S
O254       Zr274   2.372       .  S
O254      Zr1031   2.340       .  S
O254        H673   0.956       .  S
O255       Zr267   2.447       .  S
O255        C257   1.287       .  A
O256      Zr1058   2.383       .  S
O256        C257   1.280   1_565  A
C257        C324   1.452       .  S
O258       Zr270   2.385       .  S
O258       C1828   1.260       .  A
O259      Zr1841   2.428       .  S
O259        C260   1.270       .  A
C260       O1826   1.260       .  A
C260        C369   1.450       .  S
O261       Zr270   2.398       .  S
O261        C263   1.278       .  A
O262       Zr274   2.435       .  S
O262        C263   1.289       .  A
C263        C300   1.460       .  S
O264       Zr267   2.407       .  S
O264       C1834   1.269       .  A
O265      Zr1841   2.402       .  S
O265       C1050   1.272       .  A
C266       O1832   1.269       .  A
C266       O1049   1.272       .  A
C266        C345   1.448       .  S
Zr267       O268   2.441       .  S
Zr267       O269   2.437       .  S
Zr267       O279   2.392       .  S
Zr267       O277   2.335       .  S
Zr267      O1059   2.381   1_545  S
Zr267      O1060   2.385   1_545  S
O268        H288   0.988       .  S
O268        H293   0.990       .  S
O269        H289   0.990       .  S
Zr270       O271   2.434       .  S
Zr270       O272   2.433       .  S
Zr270       O276   2.374       .  S
Zr270       O275   2.331       .  S
Zr270       O280   2.369       .  S
Zr270       O278   2.357       .  S
O271        H287   0.990       .  S
O272        H286   0.989       .  S
O272        H296   0.990       .  S
Zr273      O1804   2.416       .  S
Zr273      O1810   2.415       .  S
Zr273      O1827   2.428       .  S
Zr273      O1833   2.402       .  S
Zr273       O276   2.432       .  S
Zr273       O278   2.448       .  S
Zr273      O1063   2.456       .  S
Zr274      O1029   2.437       .  S
Zr274      O1040   2.383       .  S
Zr274       O275   2.370       .  S
Zr274       O280   2.376       .  S
Zr274      O1061   2.380       .  S
O275      Zr1051   2.381       .  S
O275        H283   0.958       .  S
O276      Zr1051   2.385       .  S
O277      Zr1058   2.380   1_545  S
O278        H282   0.964       .  S
O279      Zr1057   2.456   1_545  S
O279        H284   0.965       .  S
H281        O646   0.956   1_554  S
H291       O1032   0.990       .  S
H294        O641   0.989   1_554  S
C297        C298   1.416       .  A
C297        C302   1.414       .  A
C298        C299   1.390       .  A
C298        H307   1.083       .  S
C299        C300   1.400       .  A
C299        S303   1.802       .  S
C300        C301   1.406       .  A
C301        C302   1.392       .  A
C301        H308   1.084       .  S
C302        S304   1.804       .  S
S303        H306   1.405       .  S
S304        H305   1.407       .  S
C309        C310   1.400       .  A
C309        C706   1.405       .  A
C310        C311   1.395       .  A
C310        H319   1.080       .  S
C311        C704   1.412       .  A
C311        S315   1.800       .  S
C312        C313   1.406   1_556  A
C312        C703   1.412       .  A
C313        C314   1.387       .  A
C313        H320   1.081       .  S
C314        C701   1.405   1_554  A
C314        S316   1.810       .  S
S315        H318   1.409       .  S
S316        H317   1.405       .  S
C321        C322   1.394       .  A
C321        C326   1.420       .  A
C322        C323   1.381       .  A
C322        H331   1.081       .  S
C323        C324   1.415       .  A
C323        S327   1.799       .  S
C324        C325   1.396       .  A
C325        C326   1.390       .  A
C325        H332   1.083       .  S
C326        S328   1.810       .  S
S327        H330   1.406   1_545  S
S328        H329   1.408       .  S
C333        C334   1.393       .  A
C333        C338   1.417       .  A
C334        C335   1.383       .  A
C334        H343   1.081       .  S
C335        C336   1.418       .  A
C335        S339   1.799       .  S
C336        C729   1.398       .  A
C336        C632   1.452       .  S
C337        C728   1.398       .  A
C337        C730   1.382       .  A
C337        H344   1.084       .  S
C338        C729   1.382       .  A
C338        S732   1.802       .  S
S339        H342   1.403       .  S
S340        C730   1.802       .  S
S340        H733   1.404       .  S
H341        S732   1.404       .  S
C345        C346   1.405       .  A
C345        C350   1.408       .  A
C346        C347   1.398       .  A
C346        H355   1.083       .  S
C347        C348   1.409       .  A
C347        S351   1.802       .  S
C348        C349   1.407       .  A
C349        C350   1.386       .  A
C349        H356   1.081       .  S
C350        S352   1.814       .  S
S351        H354   1.407       .  S
S352       H1921   1.407       .  S
H353       S1920   1.407       .  S
C357        C358   1.409       .  A
C357        C362   1.417       .  A
C358        C359   1.387       .  A
C358        H367   1.084       .  S
C359        C360   1.408       .  A
C359       S1147   1.807       .  S
C360        C361   1.402       .  A
C360        C638   1.455   1_554  S
C361        C362   1.398       .  A
C361        H760   1.085   1_554  S
C362        S364   1.806   1_554  S
S363       C1143   1.807       .  S
S363        H366   1.406       .  S
S364        H365   1.407   1_556  S
H368        C753   1.085       .  S
C369        C370   1.405       .  A
C369        C374   1.403       .  A
C370        C371   1.390       .  A
C370        H379   1.085       .  S
C371        C372   1.408       .  A
C371        S375   1.803       .  S
C372        C373   1.400       .  A
C373        C374   1.391       .  A
C373        H380   1.083       .  S
C374        S376   1.792       .  S
S375        H378   1.406       .  S
S376        H377   1.406       .  S
C381        C382   1.395       .  A
C381        C386   1.407       .  A
C381        C629   1.439       .  S
C382        C383   1.392       .  A
C382        H783   1.083   1_554  S
C383        C384   1.420       .  A
C383        S387   1.807       .  S
C384        C385   1.402       .  A
C385        C386   1.386       .  A
C385        H392   1.082       .  S
C386       S1172   1.804   1_545  S
S387        H390   1.402       .  S
S388       C1170   1.804       .  S
S388        H389   1.408       .  S
H391        C774   1.083       .  S
C393        C394   1.547       .  S
C393        C399   1.548       .  S
C393        C397   1.553       .  S
C393        C776   1.522       .  S
C394        H401   1.085       .  S
C394        C395   1.338       .  D
C395        C396   1.581       .  S
C395        N590   1.474       .  S
C396        C400   1.615       .  S
C396        C398   1.609       .  S
C396        H402   1.110       .  S
C397        H403   1.080       .  S
C397        C398   1.345       .  D
C398        C440   1.577       .  S
C399        H404   1.085       .  S
C399        C400   1.362       .  D
C400        C406   1.595       .  S
C405        C435   1.601       .  S
C405        C407   1.503       .  S
C405        C409   1.515       .  S
C405        C408   1.625       .  S
C406        C410   1.511       .  S
C406        C412   1.506       .  S
C406        C411   1.620       .  S
C407        C415   1.367       .  A
C407        C410   1.393       .  A
C408       C1987   1.425   1_455  A
C408        C411   1.441       .  A
C409        C423   1.369       .  A
C409        C412   1.397       .  A
C410        C413   1.366       .  A
C411       C1985   1.423   1_455  A
C412        C420   1.368       .  A
C413        N414   1.343       .  A
C413        H426   1.069       .  S
N414        C482   1.420       .  S
N414        C415   1.338       .  A
C415        H416   1.081       .  S
C417       C1979   1.423       .  A
C417        N418   1.384       .  A
C417        H427   1.082       .  S
N418        C419   1.386       .  A
N418        N500   1.466       .  S
C419       C1976   1.425       .  A
C419        H425   1.082       .  S
C420        N421   1.339       .  A
C420        H422   1.082       .  S
N421        C564   1.422       .  S
N421        C423   1.344       .  A
C423        H424   1.072       .  S
C428        C429   1.557       .  S
C428        C434   1.546       .  S
C428        C432   1.545       .  S
C428        C764   1.520       .  S
C429        H436   1.084       .  S
C429        C430   1.338       .  D
C430        C431   1.582       .  S
C430        N613   1.477       .  S
C431        C435   1.623       .  S
C431        C433   1.610       .  S
C431        H437   1.110       .  S
C432        H438   1.082       .  S
C432        C433   1.345       .  D
C433        C534   1.574       .  S
C434        H439   1.085       .  S
C434        C435   1.361       .  D
C440        C442   1.534       .  S
C440        C444   1.538       .  S
C440        C443   1.626       .  S
C441        C527   1.508       .  S
C441        C445   1.519       .  S
C441        C447   1.514       .  S
C441        C446   1.566       .  S
C442        C450   1.379       .  A
C442        C445   1.387       .  A
C443        C454   1.433       .  A
C443        C446   1.422       .  A
C444        C458   1.367       .  A
C444        C447   1.352       .  A
C445        C448   1.373       .  A
C446        C452   1.398       .  A
C447        C455   1.380       .  A
C448        N449   1.347       .  A
C448        H461   1.078       .  S
N449        C477   1.441       .  S
N449        C450   1.358       .  A
C450        H451   1.074       .  S
C452       N1237   1.363   1_545  A
C452       H1246   1.078   1_545  S
N453       C1236   1.363       .  A
N453       C1238   1.387       .  A
N453        N547   1.450       .  S
C454       N1237   1.387   1_545  A
C454       H1244   1.081       .  S
C455        N456   1.358       .  A
C455        H457   1.068       .  S
N456        C465   1.480       .  S
N456        C458   1.375       .  A
C458        H459   1.063       .  S
H460       C1238   1.081       .  S
H462       C1236   1.078       .  S
C463        C464   1.553       .  S
C463        C469   1.552       .  S
C463        C467   1.548       .  S
C463        C749   1.525       .  S
C464        H471   1.086       .  S
C464        C465   1.345       .  D
C465        C466   1.583       .  S
C466        C470   1.616       .  S
C466        C468   1.616       .  S
C466        H472   1.110       .  S
C467        H473   1.081       .  S
C467        C468   1.354       .  D
C468        C582   1.588       .  S
C469        H474   1.085       .  S
C469        C470   1.361       .  D
C470        C487   1.603       .  S
C475        C476   1.572       .  S
C475        C481   1.543       .  S
C475        C479   1.537       .  S
C475        C740   1.516       .  S
C476        H483   1.080       .  S
C476        C477   1.352       .  D
C477        C478   1.514       .  S
C478        C482   1.522       .  S
C478        C480   1.556       .  S
C478        H484   1.112       .  S
C479        H485   1.074       .  S
C479        C480   1.360       .  D
C480        C604   1.507       .  S
C481        H486   1.085       .  S
C481        C482   1.345       .  D
C487        C489   1.516       .  S
C487        C491   1.520       .  S
C487        C490   1.625       .  S
C488        C576   1.601       .  S
C488        C492   1.525       .  S
C488        C494   1.514       .  S
C488        C493   1.616       .  S
C489        C497   1.378       .  A
C489        C492   1.397       .  A
C490        C501   1.425       .  A
C490        C493   1.441       .  A
C491        C505   1.376       .  A
C491        C494   1.393       .  A
C492        C495   1.380       .  A
C493        C499   1.422       .  A
C494        C502   1.377       .  A
C495        N496   1.349       .  A
C495        H508   1.072       .  S
N496        C529   1.438       .  S
N496        C497   1.344       .  A
C497        H498   1.081       .  S
C499        N500   1.383       .  A
C499        H509   1.082       .  S
N500        C501   1.386       .  A
C501        H507   1.081       .  S
C502        N503   1.344       .  A
C502        H504   1.080       .  S
N503        C517   1.435       .  S
N503        C505   1.348       .  A
C505        H506   1.071       .  S
C510        C511   1.551       .  S
C510        C516   1.561       .  S
C510        C514   1.525       .  S
C510        C725   1.496       .  S
C511        H518   1.086       .  S
C511        C512   1.345       .  D
C512        C513   1.521       .  S
C512        N597   1.428       .  S
C513        C517   1.527       .  S
C513        C515   1.557       .  S
C513        H519   1.112       .  S
C514        H520   1.078       .  S
C514        C515   1.347       .  D
C515        C535   1.505       .  S
C516        H521   1.083       .  S
C516        C517   1.363       .  D
C522        C523   1.546       .  S
C522        C528   1.563       .  S
C522        C526   1.528       .  S
C522        C713   1.496       .  S
C523        H530   1.086       .  S
C523        C524   1.342       .  D
C524        C525   1.520       .  S
C524        N620   1.423       .  S
C525        C529   1.527       .  S
C525        C527   1.556       .  S
C525        H531   1.112       .  S
C526        H532   1.079       .  S
C526        C527   1.350       .  D
C528        H533   1.083       .  S
C528        C529   1.365       .  D
C534        C536   1.528       .  S
C534        C538   1.539       .  S
C534        C537   1.628       .  S
C535        C539   1.513       .  S
C535        C541   1.513       .  S
C535        C540   1.566       .  S
C536        C544   1.374       .  A
C536        C539   1.381       .  A
C537        C548   1.433       .  A
C537        C540   1.423       .  A
C538        C552   1.367       .  A
C538        C541   1.355       .  A
C539        C542   1.369       .  A
C540        C546   1.398       .  A
C541        C549   1.380       .  A
C542        N543   1.346       .  A
C542        H555   1.077       .  S
N543        C559   1.436       .  S
N543        C544   1.357       .  A
C544        H545   1.071       .  S
C546        N547   1.362       .  A
C546        H556   1.078       .  S
N547        C548   1.388       .  A
C548        H554   1.081       .  S
C549        N550   1.356       .  A
C549        H551   1.069       .  S
N550        C571   1.483       .  S
N550        C552   1.378       .  A
C552        H553   1.068       .  S
C557        C558   1.566       .  S
C557        C563   1.543       .  S
C557        C561   1.532       .  S
C557        C704   1.511       .  S
C558        H565   1.081       .  S
C558        C559   1.346       .  D
C559        C560   1.515       .  S
C560        C564   1.528       .  S
C560        C562   1.555       .  S
C560        H566   1.112       .  S
C561        H567   1.068       .  S
C561        C562   1.356       .  D
C562        C581   1.508       .  S
C563        H568   1.085       .  S
C563        C564   1.349       .  D
C569        C570   1.552       .  S
C569        C575   1.559       .  S
C569        C573   1.537       .  S
C569        C689   1.521       .  S
C570        H577   1.086       .  S
C570        C571   1.349       .  D
C571        C572   1.586       .  S
C572        C576   1.616       .  S
C572        C574   1.609       .  S
C572        H578   1.110       .  S
C573        H579   1.086       .  S
C573        C574   1.348       .  D
C574        C605   1.579       .  S
C575        H580   1.081       .  S
C575        C576   1.364       .  D
C581        C583   1.504       .  S
C581        C585   1.511       .  S
C581        C584   1.555       .  S
C582        C586   1.539       .  S
C582        C588   1.532       .  S
C582        C587   1.633       .  S
C583        C591   1.373       .  A
C583        C586   1.352       .  A
C584        C587   1.423       .  A
C585        C599   1.365       .  A
C585        C588   1.394       .  A
C586        C589   1.365       .  A
C588        C596   1.376       .  A
C589        N590   1.377       .  A
C589        H602   1.063       .  S
N590        C591   1.355       .  A
C591        H592   1.065       .  S
C593        N594   1.391       .  A
C593        H603   1.081       .  S
N594        C595   1.355       .  A
N594        N617   1.447       .  S
C595        H601   1.077       .  S
C596        N597   1.353       .  A
C596        H598   1.075       .  S
N597        C599   1.340       .  A
C599        H600   1.077       .  S
C604        C606   1.508       .  S
C604        C608   1.511       .  S
C604        C607   1.554       .  S
C605        C609   1.539       .  S
C605        C611   1.524       .  S
C605        C610   1.629       .  S
C606        C614   1.375       .  A
C606        C609   1.351       .  A
C607        C618   1.389       .  A
C607        C610   1.422       .  A
C608        C622   1.363       .  A
C608        C611   1.393       .  A
C609        C612   1.363       .  A
C610        C616   1.435       .  A
C611        C619   1.371       .  A
C612        N613   1.377       .  A
C612        H625   1.055       .  S
N613        C614   1.358       .  A
C614        H615   1.067       .  S
C616        N617   1.390       .  A
C616        H626   1.081       .  S
N617        C618   1.359       .  A
C618        H624   1.079       .  S
C619        N620   1.351       .  A
C619        H621   1.073       .  S
N620        C622   1.339       .  A
C622        H623   1.077       .  S
O627       Zr639   2.391   1_564  S
O627       C2197   1.262   1_565  A
O628      Zr2233   2.416       .  S
O628       C1413   1.270   1_556  A
C629       O2195   1.262   1_545  A
C629       O1412   1.270   1_554  A
O630       Zr642   2.445   1_554  S
O630        C632   1.286       .  A
O631       Zr666   2.378       .  S
O631        C632   1.280   1_556  A
O633       Zr642   2.413       .  S
O633       C2203   1.270       .  A
O634      Zr2233   2.415       .  S
O634        C635   1.275       .  A
C635       O2201   1.270       .  A
C635        C701   1.454       .  S
O636       Zr639   2.399   1_554  S
O636        C638   1.276   1_554  A
O637      Zr1450   2.437   1_545  S
O637        C638   1.288       .  A
Zr639       O641   2.443       .  S
Zr639      O1429   2.379   1_545  S
Zr639      O1430   2.340   1_545  S
Zr639       O669   2.371       .  S
Zr639       O671   2.352       .  S
O640       H1467   0.990       .  S
O641        H682   0.987       .  S
Zr642       O644   2.438       .  S
Zr642       O646   2.374       .  S
Zr642       O645   2.386       .  S
Zr642       O670   2.382       .  S
Zr642       O672   2.338       .  S
O643        H684   0.987       .  S
O643        H687   0.990       .  S
O644        H677   0.989       .  S
O645      Zr1423   2.379       .  S
O645       Zr665   2.424       .  S
O646      Zr1423   2.340       .  S
O646       Zr666   2.372       .  S
O647       Zr659   2.447       .  S
O647        C649   1.287       .  A
O648      Zr1450   2.383       .  S
O648        C649   1.280   1_565  A
C649        C716   1.452       .  S
O650       Zr662   2.385       .  S
O650       C2220   1.260       .  A
O651      Zr2233   2.428       .  S
O651        C652   1.270       .  A
C652       O2218   1.260       .  A
C652        C761   1.450       .  S
O653       Zr662   2.398       .  S
O653        C655   1.278       .  A
O654       Zr666   2.435       .  S
O654        C655   1.289       .  A
C655        C692   1.460       .  S
O656       Zr659   2.407       .  S
O656       C2226   1.269       .  A
O657      Zr2233   2.402       .  S
O657       C1442   1.272       .  A
C658       O2224   1.269       .  A
C658       O1441   1.272       .  A
C658        C737   1.448       .  S
Zr659       O660   2.441       .  S
Zr659       O661   2.437       .  S
Zr659      O1451   2.381   1_545  S
Zr659      O1452   2.385   1_545  S
Zr659       O671   2.392       .  S
Zr659       O669   2.335       .  S
O660        H680   0.988       .  S
O660        H685   0.990       .  S
O661        H681   0.990       .  S
Zr662       O663   2.434       .  S
Zr662       O664   2.433       .  S
Zr662       O668   2.374       .  S
Zr662       O667   2.331       .  S
Zr662       O672   2.369       .  S
Zr662       O670   2.357       .  S
O663        H679   0.990       .  S
O664        H678   0.989       .  S
O664        H688   0.990       .  S
Zr665      O2196   2.416       .  S
Zr665      O2202   2.415       .  S
Zr665      O2219   2.428       .  S
Zr665      O2225   2.402       .  S
Zr665       O668   2.432       .  S
Zr665       O670   2.448       .  S
Zr665      O1455   2.456       .  S
Zr666      O1421   2.437       .  S
Zr666      O1432   2.383       .  S
Zr666       O667   2.370       .  S
Zr666      O1453   2.380       .  S
Zr666       O672   2.376       .  S
O667      Zr1443   2.381       .  S
O667        H675   0.958       .  S
O668      Zr1443   2.385       .  S
O669      Zr1450   2.380   1_545  S
O670        H674   0.964       .  S
O671      Zr1449   2.456   1_545  S
O671        H676   0.965       .  S
H683       O1424   0.990       .  S
C689        C690   1.416       .  A
C689        C694   1.414       .  A
C690        C691   1.390       .  A
C690        H699   1.083       .  S
C691        C692   1.400       .  A
C691        S695   1.802       .  S
C692        C693   1.406       .  A
C693        C694   1.392       .  A
C693        H700   1.084       .  S
C694        S696   1.804       .  S
S695        H698   1.405       .  S
S696        H697   1.407       .  S
C701        C702   1.400       .  A
C702        C703   1.395       .  A
C702        H711   1.080       .  S
C703        S707   1.800       .  S
C704        C705   1.406       .  A
C705        C706   1.387       .  A
C705        H712   1.081       .  S
C706        S708   1.810       .  S
S707        H710   1.409       .  S
S708        H709   1.405       .  S
C713        C714   1.394       .  A
C713        C718   1.420       .  A
C714        C715   1.381       .  A
C714        H723   1.081       .  S
C715        C716   1.415       .  A
C715        S719   1.799       .  S
C716        C717   1.396       .  A
C717        C718   1.390       .  A
C717        H724   1.083       .  S
C718        S720   1.810       .  S
S719        H722   1.406   1_545  S
S720        H721   1.408       .  S
C725        C726   1.393       .  A
C725        C730   1.417       .  A
C726        C727   1.383       .  A
C726        H735   1.081       .  S
C727        C728   1.418       .  A
C727        S731   1.799       .  S
C729        H736   1.084       .  S
S731        H734   1.403       .  S
C737        C738   1.405       .  A
C737        C742   1.408       .  A
C738        C739   1.398       .  A
C738        H747   1.083       .  S
C739        C740   1.409       .  A
C739        S743   1.802       .  S
C740        C741   1.407       .  A
C741        C742   1.386       .  A
C741        H748   1.081       .  S
C742        S744   1.814       .  S
S743        H746   1.407       .  S
S744       H2313   1.407       .  S
H745       S2312   1.407       .  S
C749        C750   1.409       .  A
C749        C754   1.417       .  A
C750        C751   1.387       .  A
C750        H759   1.084       .  S
C751        C752   1.408       .  A
C751       S1539   1.807       .  S
C752        C753   1.402       .  A
C753        C754   1.398       .  A
C754        S756   1.806       .  S
S755       C1535   1.807       .  S
S755        H758   1.406       .  S
S756        H757   1.407       .  S
C761        C762   1.405       .  A
C761        C766   1.403       .  A
C762        C763   1.390       .  A
C762        H771   1.085       .  S
C763        C764   1.408       .  A
C763        S767   1.803       .  S
C764        C765   1.400       .  A
C765        C766   1.391       .  A
C765        H772   1.083       .  S
C766        S768   1.792       .  S
S767        H770   1.406       .  S
S768        H769   1.406       .  S
C773        C774   1.395       .  A
C773        C778   1.407       .  A
C774        C775   1.392       .  A
C775        C776   1.420       .  A
C775        S779   1.807       .  S
C776        C777   1.402       .  A
C777        C778   1.386       .  A
C777        H784   1.082       .  S
C778       S1564   1.804   1_545  S
S779        H782   1.402       .  S
S780       C1562   1.804       .  S
S780        H781   1.408       .  S
C785        C786   1.547       .  S
C785        C791   1.548       .  S
C785        C789   1.553       .  S
C785       C1168   1.522       .  S
C786        H793   1.085       .  S
C786        C787   1.338       .  D
C787        C788   1.581       .  S
C787        N982   1.474       .  S
C788        C792   1.615       .  S
C788        C790   1.609       .  S
C788        H794   1.110       .  S
C789        H795   1.080       .  S
C789        C790   1.345       .  D
C790        C832   1.577       .  S
C791        H796   1.085       .  S
C791        C792   1.362       .  D
C792        C798   1.595       .  S
C797        C827   1.601       .  S
C797        C799   1.503       .  S
C797        C801   1.515       .  S
C797        C800   1.625       .  S
C798        C802   1.511       .  S
C798        C804   1.506       .  S
C798        C803   1.620       .  S
C799        C807   1.367       .  A
C799        C802   1.393       .  A
C800       C2379   1.425   1_455  A
C800        C803   1.441       .  A
C801        C815   1.369       .  A
C801        C804   1.397       .  A
C802        C805   1.366       .  A
C803       C2377   1.423   1_455  A
C804        C812   1.368       .  A
C805        N806   1.343       .  A
C805        H818   1.069       .  S
N806        C874   1.420       .  S
N806        C807   1.338       .  A
C807        H808   1.081       .  S
C809       C2371   1.423       .  A
C809        N810   1.384       .  A
C809        H819   1.082       .  S
N810        C811   1.386       .  A
N810        N892   1.466       .  S
C811       C2368   1.425       .  A
C811        H817   1.082       .  S
C812        N813   1.339       .  A
C812        H814   1.082       .  S
N813        C956   1.422       .  S
N813        C815   1.344       .  A
C815        H816   1.072       .  S
C820        C821   1.557       .  S
C820        C826   1.546       .  S
C820        C824   1.545       .  S
C820       C1156   1.520       .  S
C821        H828   1.084       .  S
C821        C822   1.338       .  D
C822        C823   1.582       .  S
C822       N1005   1.477       .  S
C823        C827   1.623       .  S
C823        C825   1.610       .  S
C823        H829   1.110       .  S
C824        H830   1.082       .  S
C824        C825   1.345       .  D
C825        C926   1.574       .  S
C826        H831   1.085       .  S
C826        C827   1.361       .  D
C832        C834   1.534       .  S
C832        C836   1.538       .  S
C832        C835   1.626       .  S
C833        C919   1.508       .  S
C833        C837   1.519       .  S
C833        C839   1.514       .  S
C833        C838   1.566       .  S
C834        C842   1.379       .  A
C834        C837   1.387       .  A
C835        C846   1.433       .  A
C835        C838   1.422       .  A
C836        C850   1.367       .  A
C836        C839   1.352       .  A
C837        C840   1.373       .  A
C838        C844   1.398       .  A
C839        C847   1.380       .  A
C840        N841   1.347       .  A
C840        H853   1.078       .  S
N841        C869   1.441       .  S
N841        C842   1.358       .  A
C842        H843   1.074       .  S
N845        N939   1.450       .  S
C847        N848   1.358       .  A
C847        H849   1.068       .  S
N848        C857   1.480       .  S
N848        C850   1.375       .  A
C850        H851   1.063       .  S
C855        C856   1.553       .  S
C855        C861   1.552       .  S
C855        C859   1.548       .  S
C855       C1141   1.525       .  S
C856        H863   1.086       .  S
C856        C857   1.345       .  D
C857        C858   1.583       .  S
C858        C862   1.616       .  S
C858        C860   1.616       .  S
C858        H864   1.110       .  S
C859        H865   1.081       .  S
C859        C860   1.354       .  D
C860        C974   1.588       .  S
C861        H866   1.085       .  S
C861        C862   1.361       .  D
C862        C879   1.603       .  S
C867        C868   1.572       .  S
C867        C873   1.543       .  S
C867        C871   1.537       .  S
C867       C1132   1.516       .  S
C868        H875   1.080       .  S
C868        C869   1.352       .  D
C869        C870   1.514       .  S
C870        C874   1.522       .  S
C870        C872   1.556       .  S
C870        H876   1.112       .  S
C871        H877   1.074       .  S
C871        C872   1.360       .  D
C872        C996   1.507       .  S
C873        H878   1.085       .  S
C873        C874   1.345       .  D
C879        C881   1.516       .  S
C879        C883   1.520       .  S
C879        C882   1.625       .  S
C880        C968   1.601       .  S
C880        C884   1.525       .  S
C880        C886   1.514       .  S
C880        C885   1.616       .  S
C881        C889   1.378       .  A
C881        C884   1.397       .  A
C882        C893   1.425       .  A
C882        C885   1.441       .  A
C883        C897   1.376       .  A
C883        C886   1.393       .  A
C884        C887   1.380       .  A
C885        C891   1.422       .  A
C886        C894   1.377       .  A
C887        N888   1.349       .  A
C887        H900   1.072       .  S
N888        C921   1.438       .  S
N888        C889   1.344       .  A
C889        H890   1.081       .  S
C891        N892   1.383       .  A
C891        H901   1.082       .  S
N892        C893   1.386       .  A
C893        H899   1.081       .  S
C894        N895   1.344       .  A
C894        H896   1.080       .  S
N895        C909   1.435       .  S
N895        C897   1.348       .  A
C897        H898   1.071       .  S
C902        C903   1.551       .  S
C902        C908   1.561       .  S
C902        C906   1.525       .  S
C902       C1117   1.496       .  S
C903        H910   1.086       .  S
C903        C904   1.345       .  D
C904        C905   1.521       .  S
C904        N989   1.428       .  S
C905        C909   1.527       .  S
C905        C907   1.557       .  S
C905        H911   1.112       .  S
C906        H912   1.078       .  S
C906        C907   1.347       .  D
C907        C927   1.505       .  S
C908        H913   1.083       .  S
C908        C909   1.363       .  D
C914        C915   1.546       .  S
C914        C920   1.563       .  S
C914        C918   1.528       .  S
C914       C1105   1.496       .  S
C915        H922   1.086       .  S
C915        C916   1.342       .  D
C916        C917   1.520       .  S
C916       N1012   1.423       .  S
C917        C921   1.527       .  S
C917        C919   1.556       .  S
C917        H923   1.112       .  S
C918        H924   1.079       .  S
C918        C919   1.350       .  D
C920        H925   1.083       .  S
C920        C921   1.365       .  D
C926        C928   1.528       .  S
C926        C930   1.539       .  S
C926        C929   1.628       .  S
C927        C931   1.513       .  S
C927        C933   1.513       .  S
C927        C932   1.566       .  S
C928        C936   1.374       .  A
C928        C931   1.381       .  A
C929        C940   1.433       .  A
C929        C932   1.423       .  A
C930        C944   1.367       .  A
C930        C933   1.355       .  A
C931        C934   1.369       .  A
C932        C938   1.398       .  A
C933        C941   1.380       .  A
C934        N935   1.346       .  A
C934        H947   1.077       .  S
N935        C951   1.436       .  S
N935        C936   1.357       .  A
C936        H937   1.071       .  S
C938        N939   1.362       .  A
C938        H948   1.078       .  S
N939        C940   1.388       .  A
C940        H946   1.081       .  S
C941        N942   1.356       .  A
C941        H943   1.069       .  S
N942        C963   1.483       .  S
N942        C944   1.378       .  A
C944        H945   1.068       .  S
C949        C950   1.566       .  S
C949        C955   1.543       .  S
C949        C953   1.532       .  S
C949       C1096   1.511   1_554  S
C950        H957   1.081       .  S
C950        C951   1.346       .  D
C951        C952   1.515       .  S
C952        C956   1.528       .  S
C952        C954   1.555       .  S
C952        H958   1.112       .  S
C953        H959   1.068   1_554  S
C953        C954   1.356       .  D
C954        C973   1.508       .  S
C955        H960   1.085       .  S
C955        C956   1.349       .  D
C961        C962   1.552       .  S
C961        C967   1.559       .  S
C961        C965   1.537       .  S
C961       C1081   1.521       .  S
C962        H969   1.086       .  S
C962        C963   1.349       .  D
C963        C964   1.586       .  S
C964        C968   1.616       .  S
C964        C966   1.609       .  S
C964        H970   1.110       .  S
C965        H971   1.086       .  S
C965        C966   1.348       .  D
C966        C997   1.579       .  S
C967        H972   1.081       .  S
C967        C968   1.364       .  D
C973        C975   1.504       .  S
C973        C977   1.511       .  S
C973        C976   1.555       .  S
C974        C978   1.539       .  S
C974        C980   1.532       .  S
C974        C979   1.633       .  S
C975        C983   1.373       .  A
C975        C978   1.352       .  A
C976       C1379   1.389   1_554  A
C976        C979   1.423       .  A
C977        C991   1.365       .  A
C977        C980   1.394       .  A
C978        C981   1.365       .  A
C979       C1377   1.437   1_554  A
C980        C988   1.376       .  A
C981        N982   1.377       .  A
C981        H994   1.063       .  S
N982        C983   1.355       .  A
C983        H984   1.065       .  S
C985       C1371   1.437       .  A
C985        N986   1.391       .  A
C985        H995   1.081       .  S
N986        C987   1.355       .  A
N986       N1009   1.447       .  S
C987       C1368   1.389       .  A
C987        H993   1.077       .  S
C988        N989   1.353       .  A
C988        H990   1.075       .  S
N989        C991   1.340       .  A
C991        H992   1.077       .  S
C996        C998   1.508       .  S
C996       C1000   1.511       .  S
C996        C999   1.554       .  S
C997       C1001   1.539       .  S
C997       C1003   1.524       .  S
C997       C1002   1.629       .  S
C998       C1006   1.375       .  A
C998       C1001   1.351       .  A
C999       C1010   1.389       .  A
C999       C1002   1.422       .  A
C1000      C1014   1.363       .  A
C1000      C1003   1.393       .  A
C1001      C1004   1.363       .  A
C1002      C1008   1.435       .  A
C1003      C1011   1.371       .  A
C1004      N1005   1.377       .  A
C1004      H1017   1.055       .  S
N1005      C1006   1.358       .  A
C1006      H1007   1.067       .  S
C1008      N1009   1.390       .  A
C1008      H1018   1.081       .  S
N1009      C1010   1.359       .  A
C1010      H1016   1.079       .  S
C1011      N1012   1.351       .  A
C1011      H1013   1.073       .  S
N1012      C1014   1.339       .  A
C1014      H1015   1.077       .  S
O1019     Zr1031   2.391       .  S
O1019      C2589   1.262       .  A
O1020     Zr2625   2.416   1_545  S
C1021      O2587   1.262       .  A
C1021      C1557   1.439       .  S
O1022     Zr1034   2.445       .  S
O1022      C1024   1.286       .  A
O1023     Zr1058   2.378       .  S
O1023      C1024   1.280       .  A
C1024      C1512   1.452       .  S
O1025     Zr1034   2.413       .  S
O1025      C2595   1.270       .  A
O1026     Zr2625   2.415       .  S
O1026      C1027   1.275       .  A
C1027      O2593   1.270       .  A
C1027      C1093   1.454       .  S
O1028     Zr1031   2.399       .  S
O1028      C1030   1.276       .  A
O1029      C1030   1.288       .  A
C1030      C1536   1.455       .  S
Zr1031     O1424   2.434       .  S
Zr1031     O1033   2.443       .  S
Zr1031     O1061   2.371       .  S
Zr1031     O1063   2.352       .  S
O1032     Zr1423   2.434   1_554  S
O1033      H1074   0.987       .  S
O1033      H1470   0.989       .  S
Zr1034     O1427   2.445       .  S
Zr1034     O1036   2.438       .  S
Zr1034     O1038   2.374       .  S
Zr1034     O1037   2.386       .  S
Zr1034     O1062   2.382       .  S
Zr1034     O1064   2.338       .  S
O1035     Zr1426   2.445   1_554  S
O1035      H1076   0.987       .  S
O1035      H1079   0.990       .  S
O1036      H1069   0.989       .  S
O1037     Zr1057   2.424       .  S
O1038     Zr1058   2.372       .  S
O1038      H1457   0.956       .  S
O1039     Zr1051   2.447       .  S
O1039      C1041   1.287       .  A
O1040      C1041   1.280       .  A
C1041      C1108   1.452       .  S
O1042     Zr1054   2.385       .  S
O1042      C2612   1.260       .  A
O1043     Zr2625   2.428       .  S
O1043      C1044   1.270       .  A
C1044      O2610   1.260       .  A
C1044      C1153   1.450       .  S
O1045     Zr1054   2.398       .  S
O1045      C1047   1.278       .  A
O1046     Zr1058   2.435       .  S
O1046      C1047   1.289       .  A
C1047      C1084   1.460       .  S
O1048     Zr1051   2.407       .  S
O1048      C2618   1.269       .  A
O1049     Zr2625   2.402   1_545  S
C1050      O2616   1.269       .  A
C1050      C1129   1.448       .  S
Zr1051     O1052   2.441       .  S
Zr1051     O1053   2.437       .  S
Zr1051     O1063   2.392       .  S
Zr1051     O1061   2.335       .  S
O1052      H1072   0.988       .  S
O1052      H1077   0.990       .  S
O1053      H1073   0.990       .  S
Zr1054     O1055   2.434       .  S
Zr1054     O1056   2.433       .  S
Zr1054     O1060   2.374       .  S
Zr1054     O1059   2.331       .  S
Zr1054     O1064   2.369       .  S
Zr1054     O1062   2.357       .  S
O1055      H1071   0.990       .  S
O1056      H1070   0.989       .  S
O1056      H1080   0.990       .  S
Zr1057     O2588   2.416   1_565  S
Zr1057     O2594   2.415       .  S
Zr1057     O2611   2.428       .  S
Zr1057     O2617   2.402   1_565  S
Zr1057     O1060   2.432       .  S
Zr1057     O1062   2.448       .  S
Zr1058     O1059   2.370       .  S
Zr1058     O1064   2.376       .  S
O1059      H1067   0.958       .  S
O1062      H1066   0.964       .  S
O1063      H1068   0.965       .  S
H1065      O1430   0.956   1_554  S
H1078      O1425   0.989   1_554  S
C1081      C1082   1.416       .  A
C1081      C1086   1.414       .  A
C1082      C1083   1.390       .  A
C1082      H1091   1.083       .  S
C1083      C1084   1.400       .  A
C1083      S1087   1.802       .  S
C1084      C1085   1.406       .  A
C1085      C1086   1.392       .  A
C1085      H1092   1.084       .  S
C1086      S1088   1.804       .  S
S1087      H1090   1.405       .  S
S1088      H1089   1.407       .  S
C1093      C1094   1.400       .  A
C1093      C1490   1.405       .  A
C1094      C1095   1.395       .  A
C1094      H1103   1.080       .  S
C1095      C1488   1.412       .  A
C1095      S1099   1.800       .  S
C1096      C1487   1.412       .  A
C1096      C1097   1.406   1_556  A
C1097      C1098   1.387       .  A
C1097      H1104   1.081       .  S
C1098      C1485   1.405   1_554  A
C1098      S1100   1.810       .  S
S1099      H1102   1.409       .  S
S1100      H1101   1.405       .  S
C1105      C1106   1.394       .  A
C1105      C1110   1.420       .  A
C1106      C1107   1.381       .  A
C1106      H1115   1.081       .  S
C1107      C1108   1.415       .  A
C1107      S1111   1.799       .  S
C1108      C1109   1.396       .  A
C1109      C1110   1.390       .  A
C1109      H1116   1.083       .  S
C1110      S1112   1.810       .  S
S1111      H1114   1.406       .  S
S1112      H1113   1.408       .  S
C1117      C1118   1.393       .  A
C1117      C1122   1.417       .  A
C1118      C1119   1.383       .  A
C1118      H1127   1.081       .  S
C1119      C1120   1.418       .  A
C1119      S1123   1.799       .  S
C1120      C1513   1.398       .  A
C1120      C1416   1.452       .  S
C1121      C1512   1.398       .  A
C1121      C1514   1.382       .  A
C1121      H1128   1.084       .  S
C1122      C1513   1.382       .  A
C1122      S1516   1.802       .  S
S1123      H1126   1.403       .  S
S1124      C1514   1.802       .  S
S1124      H1517   1.404       .  S
H1125      S1516   1.404       .  S
C1129      C1130   1.405       .  A
C1129      C1134   1.408       .  A
C1130      C1131   1.398       .  A
C1130      H1139   1.083       .  S
C1131      C1132   1.409       .  A
C1131      S1135   1.802       .  S
C1132      C1133   1.407       .  A
C1133      C1134   1.386       .  A
C1133      H1140   1.081       .  S
C1134      S1136   1.814       .  S
S1135      H1138   1.407       .  S
S1136      H2705   1.407       .  S
H1137      S2704   1.407       .  S
C1141      C1142   1.409       .  A
C1141      C1146   1.417       .  A
C1142      C1143   1.387       .  A
C1142      H1151   1.084       .  S
C1143      C1144   1.408       .  A
C1144      C1145   1.402       .  A
C1144      C1422   1.455   1_554  S
C1145      C1146   1.398       .  A
C1145      H1544   1.085   1_554  S
C1146      S1148   1.806   1_554  S
S1147      H1150   1.406   1_545  S
S1148      H1149   1.407   1_556  S
H1152      C1537   1.085       .  S
C1153      C1154   1.405       .  A
C1153      C1158   1.403       .  A
C1154      C1155   1.390       .  A
C1154      H1163   1.085       .  S
C1155      C1156   1.408       .  A
C1155      S1159   1.803       .  S
C1156      C1157   1.400       .  A
C1157      C1158   1.391       .  A
C1157      H1164   1.083       .  S
C1158      S1160   1.792       .  S
S1159      H1162   1.406       .  S
S1160      H1161   1.406       .  S
C1165      C1166   1.395       .  A
C1165      C1170   1.407       .  A
C1165      C1413   1.439       .  S
C1166      C1167   1.392       .  A
C1166      H1567   1.083   1_554  S
C1167      C1168   1.420       .  A
C1167      S1171   1.807       .  S
C1168      C1169   1.402       .  A
C1169      C1170   1.386       .  A
C1169      H1176   1.082       .  S
S1171      H1174   1.402       .  S
S1172      H1173   1.408       .  S
H1175      C1558   1.083       .  S
C1177      C1178   1.547       .  S
C1177      C1183   1.548       .  S
C1177      C1181   1.553       .  S
C1177      C1560   1.522       .  S
C1178      H1185   1.085       .  S
C1178      C1179   1.338       .  D
C1179      C1180   1.581       .  S
C1179      N1374   1.474       .  S
C1180      C1184   1.615       .  S
C1180      C1182   1.609       .  S
C1180      H1186   1.110       .  S
C1181      H1187   1.080       .  S
C1181      C1182   1.345       .  D
C1182      C1224   1.577       .  S
C1183      H1188   1.085       .  S
C1183      C1184   1.362       .  D
C1184      C1190   1.595       .  S
C1189      C1219   1.601       .  S
C1189      C1191   1.503       .  S
C1189      C1193   1.515       .  S
C1189      C1192   1.625       .  S
C1190      C1194   1.511       .  S
C1190      C1196   1.506       .  S
C1190      C1195   1.620       .  S
C1191      C1199   1.367       .  A
C1191      C1194   1.393       .  A
C1192      C2771   1.425   1_455  A
C1192      C1195   1.441       .  A
C1193      C1207   1.369       .  A
C1193      C1196   1.397       .  A
C1194      C1197   1.366       .  A
C1195      C2769   1.423   1_455  A
C1196      C1204   1.368       .  A
C1197      N1198   1.343       .  A
C1197      H1210   1.069       .  S
N1198      C1266   1.420       .  S
N1198      C1199   1.338       .  A
C1199      H1200   1.081       .  S
C1201      C2763   1.423       .  A
C1201      N1202   1.384       .  A
C1201      H1211   1.082       .  S
N1202      C1203   1.386       .  A
N1202      N1284   1.466       .  S
C1203      C2760   1.425       .  A
C1203      H1209   1.082       .  S
C1204      N1205   1.339       .  A
C1204      H1206   1.082       .  S
N1205      C1348   1.422       .  S
N1205      C1207   1.344       .  A
C1207      H1208   1.072       .  S
C1212      C1213   1.557       .  S
C1212      C1218   1.546       .  S
C1212      C1216   1.545       .  S
C1212      C1548   1.520       .  S
C1213      H1220   1.084       .  S
C1213      C1214   1.338       .  D
C1214      C1215   1.582       .  S
C1214      N1397   1.477       .  S
C1215      C1219   1.623       .  S
C1215      C1217   1.610       .  S
C1215      H1221   1.110       .  S
C1216      H1222   1.082       .  S
C1216      C1217   1.345       .  D
C1217      C1318   1.574       .  S
C1218      H1223   1.085       .  S
C1218      C1219   1.361       .  D
C1224      C1226   1.534       .  S
C1224      C1228   1.538       .  S
C1224      C1227   1.626       .  S
C1225      C1311   1.508       .  S
C1225      C1229   1.519       .  S
C1225      C1231   1.514       .  S
C1225      C1230   1.566       .  S
C1226      C1234   1.379       .  A
C1226      C1229   1.387       .  A
C1227      C1238   1.433       .  A
C1227      C1230   1.422       .  A
C1228      C1242   1.367       .  A
C1228      C1231   1.352       .  A
C1229      C1232   1.373       .  A
C1230      C1236   1.398       .  A
C1231      C1239   1.380       .  A
C1232      N1233   1.347       .  A
C1232      H1245   1.078       .  S
N1233      C1261   1.441       .  S
N1233      C1234   1.358       .  A
C1234      H1235   1.074       .  S
N1237      N1331   1.450       .  S
C1239      N1240   1.358       .  A
C1239      H1241   1.068       .  S
N1240      C1249   1.480       .  S
N1240      C1242   1.375       .  A
C1242      H1243   1.063       .  S
C1247      C1248   1.553       .  S
C1247      C1253   1.552       .  S
C1247      C1251   1.548       .  S
C1247      C1533   1.525       .  S
C1248      H1255   1.086       .  S
C1248      C1249   1.345       .  D
C1249      C1250   1.583       .  S
C1250      C1254   1.616       .  S
C1250      C1252   1.616       .  S
C1250      H1256   1.110       .  S
C1251      H1257   1.081       .  S
C1251      C1252   1.354       .  D
C1252      C1366   1.588       .  S
C1253      H1258   1.085       .  S
C1253      C1254   1.361       .  D
C1254      C1271   1.603       .  S
C1259      C1260   1.572       .  S
C1259      C1265   1.543       .  S
C1259      C1263   1.537       .  S
C1259      C1524   1.516       .  S
C1260      H1267   1.080       .  S
C1260      C1261   1.352       .  D
C1261      C1262   1.514       .  S
C1262      C1266   1.522       .  S
C1262      C1264   1.556       .  S
C1262      H1268   1.112       .  S
C1263      H1269   1.074       .  S
C1263      C1264   1.360       .  D
C1264      C1388   1.507       .  S
C1265      H1270   1.085       .  S
C1265      C1266   1.345       .  D
C1271      C1273   1.516       .  S
C1271      C1275   1.520       .  S
C1271      C1274   1.625       .  S
C1272      C1360   1.601       .  S
C1272      C1276   1.525       .  S
C1272      C1278   1.514       .  S
C1272      C1277   1.616       .  S
C1273      C1281   1.378       .  A
C1273      C1276   1.397       .  A
C1274      C1285   1.425       .  A
C1274      C1277   1.441       .  A
C1275      C1289   1.376       .  A
C1275      C1278   1.393       .  A
C1276      C1279   1.380       .  A
C1277      C1283   1.422       .  A
C1278      C1286   1.377       .  A
C1279      N1280   1.349       .  A
C1279      H1292   1.072       .  S
N1280      C1313   1.438       .  S
N1280      C1281   1.344       .  A
C1281      H1282   1.081       .  S
C1283      N1284   1.383       .  A
C1283      H1293   1.082       .  S
N1284      C1285   1.386       .  A
C1285      H1291   1.081       .  S
C1286      N1287   1.344       .  A
C1286      H1288   1.080       .  S
N1287      C1301   1.435       .  S
N1287      C1289   1.348       .  A
C1289      H1290   1.071       .  S
C1294      C1295   1.551       .  S
C1294      C1300   1.561       .  S
C1294      C1298   1.525       .  S
C1294      C1509   1.496       .  S
C1295      H1302   1.086       .  S
C1295      C1296   1.345       .  D
C1296      C1297   1.521       .  S
C1296      N1381   1.428       .  S
C1297      C1301   1.527       .  S
C1297      C1299   1.557       .  S
C1297      H1303   1.112       .  S
C1298      H1304   1.078       .  S
C1298      C1299   1.347       .  D
C1299      C1319   1.505       .  S
C1300      H1305   1.083       .  S
C1300      C1301   1.363       .  D
C1306      C1307   1.546       .  S
C1306      C1312   1.563       .  S
C1306      C1310   1.528       .  S
C1306      C1497   1.496       .  S
C1307      H1314   1.086       .  S
C1307      C1308   1.342       .  D
C1308      C1309   1.520       .  S
C1308      N1404   1.423       .  S
C1309      C1313   1.527       .  S
C1309      C1311   1.556       .  S
C1309      H1315   1.112       .  S
C1310      H1316   1.079       .  S
C1310      C1311   1.350       .  D
C1312      H1317   1.083       .  S
C1312      C1313   1.365       .  D
C1318      C1320   1.528       .  S
C1318      C1322   1.539       .  S
C1318      C1321   1.628       .  S
C1319      C1323   1.513       .  S
C1319      C1325   1.513       .  S
C1319      C1324   1.566       .  S
C1320      C1328   1.374       .  A
C1320      C1323   1.381       .  A
C1321      C1332   1.433       .  A
C1321      C1324   1.423       .  A
C1322      C1336   1.367       .  A
C1322      C1325   1.355       .  A
C1323      C1326   1.369       .  A
C1324      C1330   1.398       .  A
C1325      C1333   1.380       .  A
C1326      N1327   1.346       .  A
C1326      H1339   1.077       .  S
N1327      C1343   1.436       .  S
N1327      C1328   1.357       .  A
C1328      H1329   1.071       .  S
C1330      N1331   1.362       .  A
C1330      H1340   1.078       .  S
N1331      C1332   1.388       .  A
C1332      H1338   1.081       .  S
C1333      N1334   1.356       .  A
C1333      H1335   1.069       .  S
N1334      C1355   1.483       .  S
N1334      C1336   1.378       .  A
C1336      H1337   1.068       .  S
C1341      C1342   1.566       .  S
C1341      C1347   1.543       .  S
C1341      C1345   1.532       .  S
C1341      C1488   1.511       .  S
C1342      H1349   1.081       .  S
C1342      C1343   1.346       .  D
C1343      C1344   1.515       .  S
C1344      C1348   1.528       .  S
C1344      C1346   1.555       .  S
C1344      H1350   1.112       .  S
C1345      H1351   1.068       .  S
C1345      C1346   1.356       .  D
C1346      C1365   1.508       .  S
C1347      H1352   1.085       .  S
C1347      C1348   1.349       .  D
C1353      C1354   1.552       .  S
C1353      C1359   1.559       .  S
C1353      C1357   1.537       .  S
C1353      C1473   1.521       .  S
C1354      H1361   1.086       .  S
C1354      C1355   1.349       .  D
C1355      C1356   1.586       .  S
C1356      C1360   1.616       .  S
C1356      C1358   1.609       .  S
C1356      H1362   1.110       .  S
C1357      H1363   1.086       .  S
C1357      C1358   1.348       .  D
C1358      C1389   1.579       .  S
C1359      H1364   1.081       .  S
C1359      C1360   1.364       .  D
C1365      C1367   1.504       .  S
C1365      C1369   1.511       .  S
C1365      C1368   1.555       .  S
C1366      C1370   1.539       .  S
C1366      C1372   1.532       .  S
C1366      C1371   1.633       .  S
C1367      C1375   1.373       .  A
C1367      C1370   1.352       .  A
C1368      C1371   1.423       .  A
C1369      C1383   1.365       .  A
C1369      C1372   1.394       .  A
C1370      C1373   1.365       .  A
C1372      C1380   1.376       .  A
C1373      N1374   1.377       .  A
C1373      H1386   1.063       .  S
N1374      C1375   1.355       .  A
C1375      H1376   1.065       .  S
C1377      N1378   1.391       .  A
C1377      H1387   1.081       .  S
N1378      C1379   1.355       .  A
N1378      N1401   1.447       .  S
C1379      H1385   1.077       .  S
C1380      N1381   1.353       .  A
C1380      H1382   1.075       .  S
N1381      C1383   1.340       .  A
C1383      H1384   1.077       .  S
C1388      C1390   1.508       .  S
C1388      C1392   1.511       .  S
C1388      C1391   1.554       .  S
C1389      C1393   1.539       .  S
C1389      C1395   1.524       .  S
C1389      C1394   1.629       .  S
C1390      C1398   1.375       .  A
C1390      C1393   1.351       .  A
C1391      C1402   1.389       .  A
C1391      C1394   1.422       .  A
C1392      C1406   1.363       .  A
C1392      C1395   1.393       .  A
C1393      C1396   1.363       .  A
C1394      C1400   1.435       .  A
C1395      C1403   1.371       .  A
C1396      N1397   1.377       .  A
C1396      H1409   1.055       .  S
N1397      C1398   1.358       .  A
C1398      H1399   1.067       .  S
C1400      N1401   1.390       .  A
C1400      H1410   1.081       .  S
N1401      C1402   1.359       .  A
C1402      H1408   1.079       .  S
C1403      N1404   1.351       .  A
C1403      H1405   1.073       .  S
N1404      C1406   1.339       .  A
C1406      H1407   1.077       .  S
O1411     Zr1423   2.391   1_554  S
O1411      C2981   1.262       .  A
O1412     Zr3017   2.416   1_545  S
C1413      O2979   1.262       .  A
O1414     Zr1426   2.445   1_554  S
O1414      C1416   1.286       .  A
O1415     Zr1450   2.378       .  S
O1415      C1416   1.280   1_556  A
O1417     Zr1426   2.413       .  S
O1417      C2987   1.270       .  A
O1418     Zr3017   2.415       .  S
O1418      C1419   1.275       .  A
C1419      O2985   1.270       .  A
C1419      C1485   1.454       .  S
O1420     Zr1423   2.399   1_554  S
O1420      C1422   1.276   1_554  A
O1421      C1422   1.288       .  A
Zr1423     O1425   2.443       .  S
Zr1423     O1453   2.371       .  S
Zr1423     O1455   2.352       .  S
O1425      H1466   0.987       .  S
Zr1426     O1428   2.438       .  S
Zr1426     O1430   2.374       .  S
Zr1426     O1429   2.386       .  S
Zr1426     O1454   2.382       .  S
Zr1426     O1456   2.338       .  S
O1427      H1468   0.987       .  S
O1427      H1471   0.990       .  S
O1428      H1461   0.989       .  S
O1429     Zr1449   2.424       .  S
O1430     Zr1450   2.372       .  S
O1431     Zr1443   2.447       .  S
O1431      C1433   1.287       .  A
O1432      C1433   1.280       .  A
C1433      C1500   1.452       .  S
O1434     Zr1446   2.385       .  S
O1434      C3004   1.260       .  A
O1435     Zr3017   2.428       .  S
O1435      C1436   1.270       .  A
C1436      O3002   1.260       .  A
C1436      C1545   1.450       .  S
O1437     Zr1446   2.398       .  S
O1437      C1439   1.278       .  A
O1438     Zr1450   2.435       .  S
O1438      C1439   1.289       .  A
C1439      C1476   1.460       .  S
O1440     Zr1443   2.407       .  S
O1440      C3010   1.269       .  A
O1441     Zr3017   2.402   1_545  S
C1442      O3008   1.269       .  A
C1442      C1521   1.448       .  S
Zr1443     O1444   2.441       .  S
Zr1443     O1445   2.437       .  S
Zr1443     O1455   2.392       .  S
Zr1443     O1453   2.335       .  S
O1444      H1464   0.988       .  S
O1444      H1469   0.990       .  S
O1445      H1465   0.990       .  S
Zr1446     O1447   2.434       .  S
Zr1446     O1448   2.433       .  S
Zr1446     O1452   2.374       .  S
Zr1446     O1451   2.331       .  S
Zr1446     O1456   2.369       .  S
Zr1446     O1454   2.357       .  S
O1447      H1463   0.990       .  S
O1448      H1462   0.989       .  S
O1448      H1472   0.990       .  S
Zr1449     O2980   2.416   1_565  S
Zr1449     O2986   2.415       .  S
Zr1449     O3003   2.428       .  S
Zr1449     O3009   2.402   1_565  S
Zr1449     O1452   2.432       .  S
Zr1449     O1454   2.448       .  S
Zr1450     O1451   2.370       .  S
Zr1450     O1456   2.376       .  S
O1451      H1459   0.958       .  S
O1454      H1458   0.964       .  S
O1455      H1460   0.965       .  S
C1473      C1474   1.416       .  A
C1473      C1478   1.414       .  A
C1474      C1475   1.390       .  A
C1474      H1483   1.083       .  S
C1475      C1476   1.400       .  A
C1475      S1479   1.802       .  S
C1476      C1477   1.406       .  A
C1477      C1478   1.392       .  A
C1477      H1484   1.084       .  S
C1478      S1480   1.804       .  S
S1479      H1482   1.405       .  S
S1480      H1481   1.407       .  S
C1485      C1486   1.400       .  A
C1486      C1487   1.395       .  A
C1486      H1495   1.080       .  S
C1487      S1491   1.800       .  S
C1488      C1489   1.406       .  A
C1489      C1490   1.387       .  A
C1489      H1496   1.081       .  S
C1490      S1492   1.810       .  S
S1491      H1494   1.409       .  S
S1492      H1493   1.405       .  S
C1497      C1498   1.394       .  A
C1497      C1502   1.420       .  A
C1498      C1499   1.381       .  A
C1498      H1507   1.081       .  S
C1499      C1500   1.415       .  A
C1499      S1503   1.799       .  S
C1500      C1501   1.396       .  A
C1501      C1502   1.390       .  A
C1501      H1508   1.083       .  S
C1502      S1504   1.810       .  S
S1503      H1506   1.406       .  S
S1504      H1505   1.408       .  S
C1509      C1510   1.393       .  A
C1509      C1514   1.417       .  A
C1510      C1511   1.383       .  A
C1510      H1519   1.081       .  S
C1511      C1512   1.418       .  A
C1511      S1515   1.799       .  S
C1513      H1520   1.084       .  S
S1515      H1518   1.403       .  S
C1521      C1522   1.405       .  A
C1521      C1526   1.408       .  A
C1522      C1523   1.398       .  A
C1522      H1531   1.083       .  S
C1523      C1524   1.409       .  A
C1523      S1527   1.802       .  S
C1524      C1525   1.407       .  A
C1525      C1526   1.386       .  A
C1525      H1532   1.081       .  S
C1526      S1528   1.814       .  S
S1527      H1530   1.407       .  S
S1528      H3097   1.407       .  S
H1529      S3096   1.407       .  S
C1533      C1534   1.409       .  A
C1533      C1538   1.417       .  A
C1534      C1535   1.387       .  A
C1534      H1543   1.084       .  S
C1535      C1536   1.408       .  A
C1536      C1537   1.402       .  A
C1537      C1538   1.398       .  A
C1538      S1540   1.806       .  S
S1539      H1542   1.406   1_545  S
S1540      H1541   1.407       .  S
C1545      C1546   1.405       .  A
C1545      C1550   1.403       .  A
C1546      C1547   1.390       .  A
C1546      H1555   1.085       .  S
C1547      C1548   1.408       .  A
C1547      S1551   1.803       .  S
C1548      C1549   1.400       .  A
C1549      C1550   1.391       .  A
C1549      H1556   1.083       .  S
C1550      S1552   1.792       .  S
S1551      H1554   1.406       .  S
S1552      H1553   1.406       .  S
C1557      C1558   1.395       .  A
C1557      C1562   1.407       .  A
C1558      C1559   1.392       .  A
C1559      C1560   1.420       .  A
C1559      S1563   1.807       .  S
C1560      C1561   1.402       .  A
C1561      C1562   1.386       .  A
C1561      H1568   1.082       .  S
S1563      H1566   1.402       .  S
S1564      H1565   1.408       .  S
C1569      C1570   1.547       .  S
C1569      C1575   1.548       .  S
C1569      C1573   1.553       .  S
C1569      C1952   1.522       .  S
C1570      H1577   1.085       .  S
C1570      C1571   1.338       .  D
C1571      C1572   1.581       .  S
C1571      N1766   1.474       .  S
C1572      C1576   1.615       .  S
C1572      C1574   1.609       .  S
C1572      H1578   1.110       .  S
C1573      H1579   1.080       .  S
C1573      C1574   1.345       .  D
C1574      C1616   1.577       .  S
C1575      H1580   1.085       .  S
C1575      C1576   1.362       .  D
C1576      C1582   1.595       .  S
C1581      C1611   1.601       .  S
C1581      C1583   1.503       .  S
C1581      C1585   1.515       .  S
C1581      C1584   1.625       .  S
C1582      C1586   1.511       .  S
C1582      C1588   1.506       .  S
C1582      C1587   1.620       .  S
C1583      C1591   1.367       .  A
C1583      C1586   1.393       .  A
C1584      C1587   1.441       .  A
C1585      C1599   1.369       .  A
C1585      C1588   1.397       .  A
C1586      C1589   1.366       .  A
C1588      C1596   1.368       .  A
C1589      N1590   1.343       .  A
C1589      H1602   1.069       .  S
N1590      C1658   1.420       .  S
N1590      C1591   1.338       .  A
C1591      H1592   1.081       .  S
C1593      N1594   1.384       .  A
C1593      H1603   1.082       .  S
N1594      C1595   1.386       .  A
N1594      N1676   1.466       .  S
C1595      H1601   1.082       .  S
C1596      N1597   1.339       .  A
C1596      H1598   1.082       .  S
N1597      C1740   1.422       .  S
N1597      C1599   1.344       .  A
C1599      H1600   1.072       .  S
C1604      C1605   1.557       .  S
C1604      C1610   1.546       .  S
C1604      C1608   1.545       .  S
C1604      C1940   1.520       .  S
C1605      H1612   1.084       .  S
C1605      C1606   1.338       .  D
C1606      C1607   1.582       .  S
C1606      N1789   1.477       .  S
C1607      C1611   1.623       .  S
C1607      C1609   1.610       .  S
C1607      H1613   1.110       .  S
C1608      H1614   1.082       .  S
C1608      C1609   1.345       .  D
C1609      C1710   1.574       .  S
C1610      H1615   1.085       .  S
C1610      C1611   1.361       .  D
C1616      C1618   1.534       .  S
C1616      C1620   1.538       .  S
C1616      C1619   1.626       .  S
C1617      C1703   1.508       .  S
C1617      C1621   1.519       .  S
C1617      C1623   1.514       .  S
C1617      C1622   1.566       .  S
C1618      C1626   1.379       .  A
C1618      C1621   1.387       .  A
C1619      C1630   1.433       .  A
C1619      C1622   1.422       .  A
C1620      C1634   1.367       .  A
C1620      C1623   1.352       .  A
C1621      C1624   1.373       .  A
C1622      C1628   1.398       .  A
C1623      C1631   1.380       .  A
C1624      N1625   1.347       .  A
C1624      H1637   1.078       .  S
N1625      C1653   1.441       .  S
N1625      C1626   1.358       .  A
C1626      H1627   1.074       .  S
C1628      N2413   1.363   1_545  A
C1628      H2422   1.078   1_545  S
N1629      C2412   1.363       .  A
N1629      C2414   1.387       .  A
N1629      N1723   1.450       .  S
C1630      N2413   1.387   1_545  A
C1630      H2420   1.081       .  S
C1631      N1632   1.358       .  A
C1631      H1633   1.068       .  S
N1632      C1641   1.480       .  S
N1632      C1634   1.375       .  A
C1634      H1635   1.063       .  S
H1636      C2414   1.081       .  S
H1638      C2412   1.078       .  S
C1639      C1640   1.553       .  S
C1639      C1645   1.552       .  S
C1639      C1643   1.548       .  S
C1639      C1925   1.525       .  S
C1640      H1647   1.086       .  S
C1640      C1641   1.345       .  D
C1641      C1642   1.583       .  S
C1642      C1646   1.616       .  S
C1642      C1644   1.616       .  S
C1642      H1648   1.110       .  S
C1643      H1649   1.081       .  S
C1643      C1644   1.354       .  D
C1644      C1758   1.588       .  S
C1645      H1650   1.085       .  S
C1645      C1646   1.361       .  D
C1646      C1663   1.603       .  S
C1651      C1652   1.572       .  S
C1651      C1657   1.543       .  S
C1651      C1655   1.537       .  S
C1651      C1916   1.516       .  S
C1652      H1659   1.080       .  S
C1652      C1653   1.352       .  D
C1653      C1654   1.514       .  S
C1654      C1658   1.522       .  S
C1654      C1656   1.556       .  S
C1654      H1660   1.112       .  S
C1655      H1661   1.074       .  S
C1655      C1656   1.360       .  D
C1656      C1780   1.507       .  S
C1657      H1662   1.085       .  S
C1657      C1658   1.345       .  D
C1663      C1665   1.516       .  S
C1663      C1667   1.520       .  S
C1663      C1666   1.625       .  S
C1664      C1752   1.601       .  S
C1664      C1668   1.525       .  S
C1664      C1670   1.514       .  S
C1664      C1669   1.616       .  S
C1665      C1673   1.378       .  A
C1665      C1668   1.397       .  A
C1666      C1677   1.425       .  A
C1666      C1669   1.441       .  A
C1667      C1681   1.376       .  A
C1667      C1670   1.393       .  A
C1668      C1671   1.380       .  A
C1669      C1675   1.422       .  A
C1670      C1678   1.377       .  A
C1671      N1672   1.349       .  A
C1671      H1684   1.072       .  S
N1672      C1705   1.438       .  S
N1672      C1673   1.344       .  A
C1673      H1674   1.081       .  S
C1675      N1676   1.383       .  A
C1675      H1685   1.082       .  S
N1676      C1677   1.386       .  A
C1677      H1683   1.081       .  S
C1678      N1679   1.344       .  A
C1678      H1680   1.080       .  S
N1679      C1693   1.435       .  S
N1679      C1681   1.348       .  A
C1681      H1682   1.071       .  S
C1686      C1687   1.551       .  S
C1686      C1692   1.561       .  S
C1686      C1690   1.525       .  S
C1686      C1901   1.496       .  S
C1687      H1694   1.086       .  S
C1687      C1688   1.345       .  D
C1688      C1689   1.521       .  S
C1688      N1773   1.428       .  S
C1689      C1693   1.527       .  S
C1689      C1691   1.557       .  S
C1689      H1695   1.112       .  S
C1690      H1696   1.078       .  S
C1690      C1691   1.347       .  D
C1691      C1711   1.505       .  S
C1692      H1697   1.083       .  S
C1692      C1693   1.363       .  D
C1698      C1699   1.546       .  S
C1698      C1704   1.563       .  S
C1698      C1702   1.528       .  S
C1698      C1889   1.496       .  S
C1699      H1706   1.086       .  S
C1699      C1700   1.342       .  D
C1700      C1701   1.520       .  S
C1700      N1796   1.423       .  S
C1701      C1705   1.527       .  S
C1701      C1703   1.556       .  S
C1701      H1707   1.112       .  S
C1702      H1708   1.079       .  S
C1702      C1703   1.350       .  D
C1704      H1709   1.083       .  S
C1704      C1705   1.365       .  D
C1710      C1712   1.528       .  S
C1710      C1714   1.539       .  S
C1710      C1713   1.628       .  S
C1711      C1715   1.513       .  S
C1711      C1717   1.513       .  S
C1711      C1716   1.566       .  S
C1712      C1720   1.374       .  A
C1712      C1715   1.381       .  A
C1713      C1724   1.433       .  A
C1713      C1716   1.423       .  A
C1714      C1728   1.367       .  A
C1714      C1717   1.355       .  A
C1715      C1718   1.369       .  A
C1716      C1722   1.398       .  A
C1717      C1725   1.380       .  A
C1718      N1719   1.346       .  A
C1718      H1731   1.077       .  S
N1719      C1735   1.436       .  S
N1719      C1720   1.357       .  A
C1720      H1721   1.071       .  S
C1722      N1723   1.362       .  A
C1722      H1732   1.078       .  S
N1723      C1724   1.388       .  A
C1724      H1730   1.081       .  S
C1725      N1726   1.356       .  A
C1725      H1727   1.069       .  S
N1726      C1747   1.483       .  S
N1726      C1728   1.378       .  A
C1728      H1729   1.068       .  S
C1733      C1734   1.566       .  S
C1733      C1739   1.543       .  S
C1733      C1737   1.532       .  S
C1733      C1880   1.511   1_554  S
C1734      H1741   1.081       .  S
C1734      C1735   1.346       .  D
C1735      C1736   1.515       .  S
C1736      C1740   1.528       .  S
C1736      C1738   1.555       .  S
C1736      H1742   1.112       .  S
C1737      H1743   1.068   1_554  S
C1737      C1738   1.356       .  D
C1738      C1757   1.508       .  S
C1739      H1744   1.085       .  S
C1739      C1740   1.349       .  D
C1745      C1746   1.552       .  S
C1745      C1751   1.559       .  S
C1745      C1749   1.537       .  S
C1745      C1865   1.521       .  S
C1746      H1753   1.086       .  S
C1746      C1747   1.349       .  D
C1747      C1748   1.586       .  S
C1748      C1752   1.616       .  S
C1748      C1750   1.609       .  S
C1748      H1754   1.110       .  S
C1749      H1755   1.086       .  S
C1749      C1750   1.348       .  D
C1750      C1781   1.579       .  S
C1751      H1756   1.081       .  S
C1751      C1752   1.364       .  D
C1757      C1759   1.504       .  S
C1757      C1761   1.511       .  S
C1757      C1760   1.555       .  S
C1758      C1762   1.539       .  S
C1758      C1764   1.532       .  S
C1758      C1763   1.633       .  S
C1759      C1767   1.373       .  A
C1759      C1762   1.352       .  A
C1760      C2163   1.389   1_554  A
C1760      C1763   1.423       .  A
C1761      C1775   1.365       .  A
C1761      C1764   1.394       .  A
C1762      C1765   1.365       .  A
C1763      C2161   1.437   1_554  A
C1764      C1772   1.376       .  A
C1765      N1766   1.377       .  A
C1765      H1778   1.063       .  S
N1766      C1767   1.355       .  A
C1767      H1768   1.065       .  S
C1769      C2155   1.437       .  A
C1769      N1770   1.391       .  A
C1769      H1779   1.081       .  S
N1770      C1771   1.355       .  A
N1770      N1793   1.447       .  S
C1771      C2152   1.389       .  A
C1771      H1777   1.077       .  S
C1772      N1773   1.353       .  A
C1772      H1774   1.075       .  S
N1773      C1775   1.340       .  A
C1775      H1776   1.077       .  S
C1780      C1782   1.508       .  S
C1780      C1784   1.511       .  S
C1780      C1783   1.554       .  S
C1781      C1785   1.539       .  S
C1781      C1787   1.524       .  S
C1781      C1786   1.629       .  S
C1782      C1790   1.375       .  A
C1782      C1785   1.351       .  A
C1783      C1794   1.389       .  A
C1783      C1786   1.422       .  A
C1784      C1798   1.363       .  A
C1784      C1787   1.393       .  A
C1785      C1788   1.363       .  A
C1786      C1792   1.435       .  A
C1787      C1795   1.371       .  A
C1788      N1789   1.377       .  A
C1788      H1801   1.055       .  S
N1789      C1790   1.358       .  A
C1790      H1791   1.067       .  S
C1792      N1793   1.390       .  A
C1792      H1802   1.081       .  S
N1793      C1794   1.359       .  A
C1794      H1800   1.079       .  S
C1795      N1796   1.351       .  A
C1795      H1797   1.073       .  S
N1796      C1798   1.339       .  A
C1798      H1799   1.077       .  S
O1803     Zr1815   2.391   1_465  S
O1804      C2589   1.270       .  A
C1805      O2588   1.270       .  A
C1805      C2341   1.439       .  S
O1806     Zr1818   2.445       .  S
O1806      C1808   1.286       .  A
O1807     Zr1842   2.378       .  S
O1807      C1808   1.280       .  A
C1808      C2296   1.452       .  S
O1809     Zr1818   2.413   1_455  S
O1810      C1811   1.275       .  A
C1811      C1877   1.454       .  S
O1812     Zr1815   2.399       .  S
O1812      C1814   1.276       .  A
O1813     Zr2626   2.437   1_545  S
O1813      C1814   1.288       .  A
C1814      C2320   1.455       .  S
Zr1815     O2208   2.434       .  S
Zr1815     O1817   2.443       .  S
Zr1815     O2605   2.379   1_645  S
Zr1815     O2606   2.340   1_545  S
Zr1815     O1845   2.371       .  S
Zr1815     O1847   2.352   1_655  S
O1816     Zr2207   2.434   1_554  S
O1816      H2643   0.990       .  S
O1817      H1858   0.987   1_655  S
O1817      H2254   0.989       .  S
Zr1818     O2211   2.445       .  S
Zr1818     O1820   2.438       .  S
Zr1818     O1822   2.374       .  S
Zr1818     O1821   2.386   1_655  S
Zr1818     O1846   2.382   1_655  S
Zr1818     O1848   2.338       .  S
O1819     Zr2210   2.445   1_554  S
O1819      H1860   0.987       .  S
O1819      H1863   0.990       .  S
O1820      H1853   0.989   1_655  S
O1821     Zr2599   2.379   1_455  S
O1821     Zr1841   2.424       .  S
O1822     Zr2599   2.340       .  S
O1822     Zr1842   2.372       .  S
O1822      H2241   0.956       .  S
O1823     Zr1835   2.447       .  S
O1823      C1825   1.287       .  A
O1824     Zr2626   2.383       .  S
O1824      C1825   1.280   1_565  A
C1825      C1892   1.452       .  S
O1826     Zr1838   2.385   1_455  S
O1827      C1828   1.270       .  A
C1828      C1937   1.450       .  S
O1829     Zr1838   2.398       .  S
O1829      C1831   1.278       .  A
O1830     Zr1842   2.435       .  S
O1830      C1831   1.289       .  A
C1831      C1868   1.460       .  S
O1832     Zr1835   2.407   1_455  S
O1833      C2618   1.272       .  A
C1834      O2617   1.272       .  A
C1834      C1913   1.448       .  S
Zr1835     O1836   2.441       .  S
Zr1835     O1837   2.437       .  S
Zr1835     O2627   2.381   1_545  S
Zr1835     O2628   2.385   1_645  S
Zr1835     O1847   2.392   1_655  S
Zr1835     O1845   2.335       .  S
O1836      H1856   0.988       .  S
O1836      H1861   0.990       .  S
O1837      H1857   0.990       .  S
Zr1838     O1839   2.434       .  S
Zr1838     O1840   2.433       .  S
Zr1838     O1844   2.374   1_655  S
Zr1838     O1843   2.331       .  S
Zr1838     O1848   2.369       .  S
Zr1838     O1846   2.357   1_655  S
O1839      H1855   0.990       .  S
O1840      H1854   0.989       .  S
O1840      H1864   0.990       .  S
Zr1841     O1844   2.432       .  S
Zr1841     O1846   2.448       .  S
Zr1841     O2631   2.456       .  S
Zr1842     O2597   2.437       .  S
Zr1842     O2608   2.383       .  S
Zr1842     O1843   2.370       .  S
Zr1842     O2629   2.380       .  S
Zr1842     O1848   2.376       .  S
O1843     Zr2619   2.381       .  S
O1843      H1851   0.958       .  S
O1844     Zr2619   2.385   1_455  S
O1845     Zr2626   2.380   1_545  S
O1846      H1850   0.964       .  S
O1847     Zr2625   2.456   1_545  S
O1847      H1852   0.965       .  S
H1849      O2214   0.956   1_554  S
H1859      O2600   0.990       .  S
H1862      O2209   0.989   1_554  S
C1865      C1866   1.416       .  A
C1865      C1870   1.414       .  A
C1866      C1867   1.390       .  A
C1866      H1875   1.083       .  S
C1867      C1868   1.400       .  A
C1867      S1871   1.802       .  S
C1868      C1869   1.406       .  A
C1869      C1870   1.392       .  A
C1869      H1876   1.084       .  S
C1870      S1872   1.804       .  S
S1871      H1874   1.405       .  S
S1872      H1873   1.407       .  S
C1877      C1878   1.400       .  A
C1877      C2274   1.405       .  A
C1878      C1879   1.395       .  A
C1878      H1887   1.080       .  S
C1879      C2272   1.412       .  A
C1879      S1883   1.800       .  S
C1880      C2271   1.412       .  A
C1880      C1881   1.406   1_556  A
C1881      C1882   1.387       .  A
C1881      H1888   1.081       .  S
C1882      C2269   1.405   1_554  A
C1882      S1884   1.810       .  S
S1883      H1886   1.409       .  S
S1884      H1885   1.405       .  S
C1889      C1890   1.394       .  A
C1889      C1894   1.420       .  A
C1890      C1891   1.381       .  A
C1890      H1899   1.081       .  S
C1891      C1892   1.415       .  A
C1891      S1895   1.799       .  S
C1892      C1893   1.396       .  A
C1893      C1894   1.390       .  A
C1893      H1900   1.083       .  S
C1894      S1896   1.810       .  S
S1895      H1898   1.406   1_545  S
S1896      H1897   1.408       .  S
C1901      C1902   1.393       .  A
C1901      C1906   1.417       .  A
C1902      C1903   1.383       .  A
C1902      H1911   1.081       .  S
C1903      C1904   1.418       .  A
C1903      S1907   1.799       .  S
C1904      C2297   1.398       .  A
C1904      C2200   1.452       .  S
C1905      C2296   1.398       .  A
C1905      C2298   1.382       .  A
C1905      H1912   1.084       .  S
C1906      C2297   1.382       .  A
C1906      S2300   1.802       .  S
S1907      H1910   1.403       .  S
S1908      C2298   1.802       .  S
S1908      H2301   1.404       .  S
H1909      S2300   1.404       .  S
C1913      C1914   1.405       .  A
C1913      C1918   1.408       .  A
C1914      C1915   1.398       .  A
C1914      H1923   1.083       .  S
C1915      C1916   1.409       .  A
C1915      S1919   1.802       .  S
C1916      C1917   1.407       .  A
C1917      C1918   1.386       .  A
C1917      H1924   1.081       .  S
C1918      S1920   1.814       .  S
S1919      H1922   1.407       .  S
C1925      C1926   1.409       .  A
C1925      C1930   1.417       .  A
C1926      C1927   1.387       .  A
C1926      H1935   1.084       .  S
C1927      C1928   1.408       .  A
C1927      S2715   1.807       .  S
C1928      C1929   1.402       .  A
C1928      C2206   1.455   1_554  S
C1929      C1930   1.398       .  A
C1929      H2328   1.085   1_554  S
C1930      S1932   1.806   1_554  S
S1931      C2711   1.807       .  S
S1931      H1934   1.406       .  S
S1932      H1933   1.407   1_556  S
H1936      C2321   1.085       .  S
C1937      C1938   1.405       .  A
C1937      C1942   1.403       .  A
C1938      C1939   1.390       .  A
C1938      H1947   1.085       .  S
C1939      C1940   1.408       .  A
C1939      S1943   1.803       .  S
C1940      C1941   1.400       .  A
C1941      C1942   1.391       .  A
C1941      H1948   1.083       .  S
C1942      S1944   1.792       .  S
S1943      H1946   1.406       .  S
S1944      H1945   1.406       .  S
C1949      C1950   1.395       .  A
C1949      C1954   1.407       .  A
C1949      C2197   1.439       .  S
C1950      C1951   1.392       .  A
C1950      H2351   1.083   1_554  S
C1951      C1952   1.420       .  A
C1951      S1955   1.807       .  S
C1952      C1953   1.402       .  A
C1953      C1954   1.386       .  A
C1953      H1960   1.082       .  S
C1954      S2740   1.804   1_545  S
S1955      H1958   1.402       .  S
S1956      C2738   1.804       .  S
S1956      H1957   1.408       .  S
H1959      C2342   1.083       .  S
C1961      C1962   1.547       .  S
C1961      C1967   1.548       .  S
C1961      C1965   1.553       .  S
C1961      C2344   1.522       .  S
C1962      H1969   1.085       .  S
C1962      C1963   1.338       .  D
C1963      C1964   1.581       .  S
C1963      N2158   1.474       .  S
C1964      C1968   1.615       .  S
C1964      C1966   1.609       .  S
C1964      H1970   1.110       .  S
C1965      H1971   1.080       .  S
C1965      C1966   1.345       .  D
C1966      C2008   1.577       .  S
C1967      H1972   1.085       .  S
C1967      C1968   1.362       .  D
C1968      C1974   1.595       .  S
C1973      C2003   1.601       .  S
C1973      C1975   1.503       .  S
C1973      C1977   1.515       .  S
C1973      C1976   1.625       .  S
C1974      C1978   1.511       .  S
C1974      C1980   1.506       .  S
C1974      C1979   1.620       .  S
C1975      C1983   1.367       .  A
C1975      C1978   1.393       .  A
C1976      C1979   1.441       .  A
C1977      C1991   1.369       .  A
C1977      C1980   1.397       .  A
C1978      C1981   1.366       .  A
C1980      C1988   1.368       .  A
C1981      N1982   1.343       .  A
C1981      H1994   1.069       .  S
N1982      C2050   1.420       .  S
N1982      C1983   1.338       .  A
C1983      H1984   1.081       .  S
C1985      N1986   1.384       .  A
C1985      H1995   1.082       .  S
N1986      C1987   1.386       .  A
N1986      N2068   1.466       .  S
C1987      H1993   1.082       .  S
C1988      N1989   1.339       .  A
C1988      H1990   1.082       .  S
N1989      C2132   1.422       .  S
N1989      C1991   1.344       .  A
C1991      H1992   1.072       .  S
C1996      C1997   1.557       .  S
C1996      C2002   1.546       .  S
C1996      C2000   1.545       .  S
C1996      C2332   1.520       .  S
C1997      H2004   1.084       .  S
C1997      C1998   1.338       .  D
C1998      C1999   1.582       .  S
C1998      N2181   1.477       .  S
C1999      C2003   1.623       .  S
C1999      C2001   1.610       .  S
C1999      H2005   1.110       .  S
C2000      H2006   1.083       .  S
C2000      C2001   1.345       .  D
C2001      C2102   1.574       .  S
C2002      H2007   1.085       .  S
C2002      C2003   1.361       .  D
C2008      C2010   1.534       .  S
C2008      C2012   1.538       .  S
C2008      C2011   1.626       .  S
C2009      C2095   1.508       .  S
C2009      C2013   1.519       .  S
C2009      C2015   1.514       .  S
C2009      C2014   1.566       .  S
C2010      C2018   1.379       .  A
C2010      C2013   1.387       .  A
C2011      C2022   1.433       .  A
C2011      C2014   1.422       .  A
C2012      C2026   1.367       .  A
C2012      C2015   1.352       .  A
C2013      C2016   1.373       .  A
C2014      C2020   1.398       .  A
C2015      C2023   1.380       .  A
C2016      N2017   1.347       .  A
C2016      H2029   1.078       .  S
N2017      C2045   1.441       .  S
N2017      C2018   1.358       .  A
C2018      H2019   1.074       .  S
C2020      N2805   1.363   1_545  A
C2020      H2814   1.078   1_545  S
N2021      C2804   1.363       .  A
N2021      C2806   1.387       .  A
N2021      N2115   1.450       .  S
C2022      N2805   1.387   1_545  A
C2022      H2812   1.081       .  S
C2023      N2024   1.358       .  A
C2023      H2025   1.068       .  S
N2024      C2033   1.480       .  S
N2024      C2026   1.375       .  A
C2026      H2027   1.063       .  S
H2028      C2806   1.081       .  S
H2030      C2804   1.078       .  S
C2031      C2032   1.553       .  S
C2031      C2037   1.552       .  S
C2031      C2035   1.548       .  S
C2031      C2317   1.525       .  S
C2032      H2039   1.086       .  S
C2032      C2033   1.345       .  D
C2033      C2034   1.583       .  S
C2034      C2038   1.616       .  S
C2034      C2036   1.616       .  S
C2034      H2040   1.110       .  S
C2035      H2041   1.081       .  S
C2035      C2036   1.354       .  D
C2036      C2150   1.588       .  S
C2037      H2042   1.085       .  S
C2037      C2038   1.361       .  D
C2038      C2055   1.603       .  S
C2043      C2044   1.572       .  S
C2043      C2049   1.543       .  S
C2043      C2047   1.537       .  S
C2043      C2308   1.516       .  S
C2044      H2051   1.080       .  S
C2044      C2045   1.352       .  D
C2045      C2046   1.514       .  S
C2046      C2050   1.522       .  S
C2046      C2048   1.556       .  S
C2046      H2052   1.112       .  S
C2047      H2053   1.074       .  S
C2047      C2048   1.360       .  D
C2048      C2172   1.507       .  S
C2049      H2054   1.085       .  S
C2049      C2050   1.345       .  D
C2055      C2057   1.516       .  S
C2055      C2059   1.520       .  S
C2055      C2058   1.625       .  S
C2056      C2144   1.601       .  S
C2056      C2060   1.525       .  S
C2056      C2062   1.514       .  S
C2056      C2061   1.616       .  S
C2057      C2065   1.378       .  A
C2057      C2060   1.397       .  A
C2058      C2069   1.425       .  A
C2058      C2061   1.441       .  A
C2059      C2073   1.376       .  A
C2059      C2062   1.393       .  A
C2060      C2063   1.380       .  A
C2061      C2067   1.422       .  A
C2062      C2070   1.377       .  A
C2063      N2064   1.349       .  A
C2063      H2076   1.072       .  S
N2064      C2097   1.438       .  S
N2064      C2065   1.344       .  A
C2065      H2066   1.081       .  S
C2067      N2068   1.383       .  A
C2067      H2077   1.082       .  S
N2068      C2069   1.386       .  A
C2069      H2075   1.081       .  S
C2070      N2071   1.344       .  A
C2070      H2072   1.080       .  S
N2071      C2085   1.435       .  S
N2071      C2073   1.348       .  A
C2073      H2074   1.071       .  S
C2078      C2079   1.551       .  S
C2078      C2084   1.561       .  S
C2078      C2082   1.525       .  S
C2078      C2293   1.496       .  S
C2079      H2086   1.086       .  S
C2079      C2080   1.345       .  D
C2080      C2081   1.521       .  S
C2080      N2165   1.428       .  S
C2081      C2085   1.527       .  S
C2081      C2083   1.557       .  S
C2081      H2087   1.112       .  S
C2082      H2088   1.078       .  S
C2082      C2083   1.347       .  D
C2083      C2103   1.505       .  S
C2084      H2089   1.083       .  S
C2084      C2085   1.363       .  D
C2090      C2091   1.546       .  S
C2090      C2096   1.563       .  S
C2090      C2094   1.528       .  S
C2090      C2281   1.496       .  S
C2091      H2098   1.086       .  S
C2091      C2092   1.342       .  D
C2092      C2093   1.520       .  S
C2092      N2188   1.423       .  S
C2093      C2097   1.527       .  S
C2093      C2095   1.556       .  S
C2093      H2099   1.112       .  S
C2094      H2100   1.079       .  S
C2094      C2095   1.350       .  D
C2096      H2101   1.083       .  S
C2096      C2097   1.365       .  D
C2102      C2104   1.528       .  S
C2102      C2106   1.539       .  S
C2102      C2105   1.628       .  S
C2103      C2107   1.513       .  S
C2103      C2109   1.513       .  S
C2103      C2108   1.566       .  S
C2104      C2112   1.374       .  A
C2104      C2107   1.381       .  A
C2105      C2116   1.433       .  A
C2105      C2108   1.423       .  A
C2106      C2120   1.367       .  A
C2106      C2109   1.355       .  A
C2107      C2110   1.369       .  A
C2108      C2114   1.398       .  A
C2109      C2117   1.380       .  A
C2110      N2111   1.346       .  A
C2110      H2123   1.077       .  S
N2111      C2127   1.436       .  S
N2111      C2112   1.357       .  A
C2112      H2113   1.071       .  S
C2114      N2115   1.362       .  A
C2114      H2124   1.078       .  S
N2115      C2116   1.388       .  A
C2116      H2122   1.081       .  S
C2117      N2118   1.356       .  A
C2117      H2119   1.069       .  S
N2118      C2139   1.483       .  S
N2118      C2120   1.378       .  A
C2120      H2121   1.068       .  S
C2125      C2126   1.566       .  S
C2125      C2131   1.543       .  S
C2125      C2129   1.532       .  S
C2125      C2272   1.511       .  S
C2126      H2133   1.081       .  S
C2126      C2127   1.346       .  D
C2127      C2128   1.515       .  S
C2128      C2132   1.528       .  S
C2128      C2130   1.555       .  S
C2128      H2134   1.112       .  S
C2129      H2135   1.068       .  S
C2129      C2130   1.356       .  D
C2130      C2149   1.508       .  S
C2131      H2136   1.085       .  S
C2131      C2132   1.349       .  D
C2137      C2138   1.552       .  S
C2137      C2143   1.559       .  S
C2137      C2141   1.537       .  S
C2137      C2257   1.521       .  S
C2138      H2145   1.086       .  S
C2138      C2139   1.349       .  D
C2139      C2140   1.586       .  S
C2140      C2144   1.616       .  S
C2140      C2142   1.609       .  S
C2140      H2146   1.110       .  S
C2141      H2147   1.086       .  S
C2141      C2142   1.348       .  D
C2142      C2173   1.579       .  S
C2143      H2148   1.081       .  S
C2143      C2144   1.364       .  D
C2149      C2151   1.504       .  S
C2149      C2153   1.511       .  S
C2149      C2152   1.555       .  S
C2150      C2154   1.539       .  S
C2150      C2156   1.532       .  S
C2150      C2155   1.633       .  S
C2151      C2159   1.373       .  A
C2151      C2154   1.352       .  A
C2152      C2155   1.423       .  A
C2153      C2167   1.365       .  A
C2153      C2156   1.394       .  A
C2154      C2157   1.365       .  A
C2156      C2164   1.376       .  A
C2157      N2158   1.377       .  A
C2157      H2170   1.063       .  S
N2158      C2159   1.355       .  A
C2159      H2160   1.065       .  S
C2161      N2162   1.391       .  A
C2161      H2171   1.081       .  S
N2162      C2163   1.355       .  A
N2162      N2185   1.447       .  S
C2163      H2169   1.077       .  S
C2164      N2165   1.353       .  A
C2164      H2166   1.075       .  S
N2165      C2167   1.340       .  A
C2167      H2168   1.077       .  S
C2172      C2174   1.508       .  S
C2172      C2176   1.511       .  S
C2172      C2175   1.554       .  S
C2173      C2177   1.539       .  S
C2173      C2179   1.524       .  S
C2173      C2178   1.629       .  S
C2174      C2182   1.375       .  A
C2174      C2177   1.351       .  A
C2175      C2186   1.389       .  A
C2175      C2178   1.422       .  A
C2176      C2190   1.363       .  A
C2176      C2179   1.393       .  A
C2177      C2180   1.363       .  A
C2178      C2184   1.435       .  A
C2179      C2187   1.371       .  A
C2180      N2181   1.377       .  A
C2180      H2193   1.055       .  S
N2181      C2182   1.358       .  A
C2182      H2183   1.067       .  S
C2184      N2185   1.390       .  A
C2184      H2194   1.081       .  S
N2185      C2186   1.359       .  A
C2186      H2192   1.079       .  S
C2187      N2188   1.351       .  A
C2187      H2189   1.073       .  S
N2188      C2190   1.339       .  A
C2190      H2191   1.077       .  S
O2195     Zr2207   2.391   1_464  S
O2196      C2981   1.270   1_556  A
C2197      O2980   1.270   1_554  A
O2198     Zr2210   2.445   1_554  S
O2198      C2200   1.286       .  A
O2199     Zr2234   2.378       .  S
O2199      C2200   1.280   1_556  A
O2201     Zr2210   2.413   1_455  S
O2202      C2203   1.275       .  A
C2203      C2269   1.454       .  S
O2204     Zr2207   2.399   1_554  S
O2204      C2206   1.276   1_554  A
O2205     Zr3018   2.437   1_545  S
O2205      C2206   1.288       .  A
Zr2207     O2209   2.443       .  S
Zr2207     O2997   2.379   1_645  S
Zr2207     O2998   2.340   1_545  S
Zr2207     O2237   2.371       .  S
Zr2207     O2239   2.352   1_655  S
O2208      H3035   0.990       .  S
O2209      H2250   0.987   1_655  S
Zr2210     O2212   2.438       .  S
Zr2210     O2214   2.374       .  S
Zr2210     O2213   2.386   1_655  S
Zr2210     O2238   2.382   1_655  S
Zr2210     O2240   2.338       .  S
O2211      H2252   0.987       .  S
O2211      H2255   0.990       .  S
O2212      H2245   0.989   1_655  S
O2213     Zr2991   2.379   1_455  S
O2213     Zr2233   2.424       .  S
O2214     Zr2991   2.340       .  S
O2214     Zr2234   2.372       .  S
O2215     Zr2227   2.447       .  S
O2215      C2217   1.287       .  A
O2216     Zr3018   2.383       .  S
O2216      C2217   1.280   1_565  A
C2217      C2284   1.452       .  S
O2218     Zr2230   2.385   1_455  S
O2219      C2220   1.270       .  A
C2220      C2329   1.450       .  S
O2221     Zr2230   2.398       .  S
O2221      C2223   1.278       .  A
O2222     Zr2234   2.435       .  S
O2222      C2223   1.289       .  A
C2223      C2260   1.460       .  S
O2224     Zr2227   2.407   1_455  S
O2225      C3010   1.272       .  A
C2226      O3009   1.272       .  A
C2226      C2305   1.448       .  S
Zr2227     O2228   2.441       .  S
Zr2227     O2229   2.437       .  S
Zr2227     O3019   2.381   1_545  S
Zr2227     O3020   2.385   1_645  S
Zr2227     O2239   2.392   1_655  S
Zr2227     O2237   2.335       .  S
O2228      H2248   0.988       .  S
O2228      H2253   0.990       .  S
O2229      H2249   0.990       .  S
Zr2230     O2231   2.434       .  S
Zr2230     O2232   2.433       .  S
Zr2230     O2236   2.374   1_655  S
Zr2230     O2235   2.331       .  S
Zr2230     O2240   2.369       .  S
Zr2230     O2238   2.357   1_655  S
O2231      H2247   0.990       .  S
O2232      H2246   0.989       .  S
O2232      H2256   0.990       .  S
Zr2233     O2236   2.432       .  S
Zr2233     O2238   2.448       .  S
Zr2233     O3023   2.456       .  S
Zr2234     O2989   2.437       .  S
Zr2234     O3000   2.383       .  S
Zr2234     O2235   2.370       .  S
Zr2234     O3021   2.380       .  S
Zr2234     O2240   2.376       .  S
O2235     Zr3011   2.381       .  S
O2235      H2243   0.958       .  S
O2236     Zr3011   2.385   1_455  S
O2237     Zr3018   2.380   1_545  S
O2238      H2242   0.964       .  S
O2239     Zr3017   2.456   1_545  S
O2239      H2244   0.965       .  S
H2251      O2992   0.990       .  S
C2257      C2258   1.416       .  A
C2257      C2262   1.414       .  A
C2258      C2259   1.390       .  A
C2258      H2267   1.083       .  S
C2259      C2260   1.400       .  A
C2259      S2263   1.802       .  S
C2260      C2261   1.406       .  A
C2261      C2262   1.392       .  A
C2261      H2268   1.084       .  S
C2262      S2264   1.804       .  S
S2263      H2266   1.405       .  S
S2264      H2265   1.407       .  S
C2269      C2270   1.400       .  A
C2270      C2271   1.395       .  A
C2270      H2279   1.080       .  S
C2271      S2275   1.800       .  S
C2272      C2273   1.406       .  A
C2273      C2274   1.387       .  A
C2273      H2280   1.081       .  S
C2274      S2276   1.810       .  S
S2275      H2278   1.409       .  S
S2276      H2277   1.405       .  S
C2281      C2282   1.394       .  A
C2281      C2286   1.420       .  A
C2282      C2283   1.381       .  A
C2282      H2291   1.081       .  S
C2283      C2284   1.415       .  A
C2283      S2287   1.799       .  S
C2284      C2285   1.396       .  A
C2285      C2286   1.390       .  A
C2285      H2292   1.083       .  S
C2286      S2288   1.810       .  S
S2287      H2290   1.406   1_545  S
S2288      H2289   1.408       .  S
C2293      C2294   1.393       .  A
C2293      C2298   1.417       .  A
C2294      C2295   1.383       .  A
C2294      H2303   1.081       .  S
C2295      C2296   1.418       .  A
C2295      S2299   1.799       .  S
C2297      H2304   1.084       .  S
S2299      H2302   1.403       .  S
C2305      C2306   1.405       .  A
C2305      C2310   1.408       .  A
C2306      C2307   1.398       .  A
C2306      H2315   1.083       .  S
C2307      C2308   1.409       .  A
C2307      S2311   1.802       .  S
C2308      C2309   1.407       .  A
C2309      C2310   1.386       .  A
C2309      H2316   1.081       .  S
C2310      S2312   1.814       .  S
S2311      H2314   1.407       .  S
C2317      C2318   1.409       .  A
C2317      C2322   1.417       .  A
C2318      C2319   1.387       .  A
C2318      H2327   1.084       .  S
C2319      C2320   1.408       .  A
C2319      S3107   1.807       .  S
C2320      C2321   1.402       .  A
C2321      C2322   1.398       .  A
C2322      S2324   1.806       .  S
S2323      C3103   1.807       .  S
S2323      H2326   1.406       .  S
S2324      H2325   1.407       .  S
C2329      C2330   1.405       .  A
C2329      C2334   1.403       .  A
C2330      C2331   1.390       .  A
C2330      H2339   1.085       .  S
C2331      C2332   1.408       .  A
C2331      S2335   1.803       .  S
C2332      C2333   1.400       .  A
C2333      C2334   1.391       .  A
C2333      H2340   1.083       .  S
C2334      S2336   1.792       .  S
S2335      H2338   1.406       .  S
S2336      H2337   1.406       .  S
C2341      C2342   1.395       .  A
C2341      C2346   1.407       .  A
C2342      C2343   1.392       .  A
C2343      C2344   1.420       .  A
C2343      S2347   1.807       .  S
C2344      C2345   1.402       .  A
C2345      C2346   1.386       .  A
C2345      H2352   1.082       .  S
C2346      S3132   1.804   1_545  S
S2347      H2350   1.402       .  S
S2348      C3130   1.804       .  S
S2348      H2349   1.408       .  S
C2353      C2354   1.547       .  S
C2353      C2359   1.548       .  S
C2353      C2357   1.553       .  S
C2353      C2736   1.522       .  S
C2354      H2361   1.085       .  S
C2354      C2355   1.338       .  D
C2355      C2356   1.581       .  S
C2355      N2550   1.474       .  S
C2356      C2360   1.615       .  S
C2356      C2358   1.609       .  S
C2356      H2362   1.110       .  S
C2357      H2363   1.080       .  S
C2357      C2358   1.345       .  D
C2358      C2400   1.577       .  S
C2359      H2364   1.085       .  S
C2359      C2360   1.362       .  D
C2360      C2366   1.595       .  S
C2365      C2395   1.601       .  S
C2365      C2367   1.503       .  S
C2365      C2369   1.515       .  S
C2365      C2368   1.625       .  S
C2366      C2370   1.511       .  S
C2366      C2372   1.506       .  S
C2366      C2371   1.620       .  S
C2367      C2375   1.367       .  A
C2367      C2370   1.393       .  A
C2368      C2371   1.441       .  A
C2369      C2383   1.369       .  A
C2369      C2372   1.397       .  A
C2370      C2373   1.366       .  A
C2372      C2380   1.368       .  A
C2373      N2374   1.343       .  A
C2373      H2386   1.069       .  S
N2374      C2442   1.420       .  S
N2374      C2375   1.338       .  A
C2375      H2376   1.081       .  S
C2377      N2378   1.384       .  A
C2377      H2387   1.082       .  S
N2378      C2379   1.386       .  A
N2378      N2460   1.466       .  S
C2379      H2385   1.082       .  S
C2380      N2381   1.339       .  A
C2380      H2382   1.082       .  S
N2381      C2524   1.422       .  S
N2381      C2383   1.344       .  A
C2383      H2384   1.072       .  S
C2388      C2389   1.557       .  S
C2388      C2394   1.546       .  S
C2388      C2392   1.545       .  S
C2388      C2724   1.520       .  S
C2389      H2396   1.084       .  S
C2389      C2390   1.338       .  D
C2390      C2391   1.582       .  S
C2390      N2573   1.477       .  S
C2391      C2395   1.623       .  S
C2391      C2393   1.610       .  S
C2391      H2397   1.110       .  S
C2392      H2398   1.082       .  S
C2392      C2393   1.345       .  D
C2393      C2494   1.574       .  S
C2394      H2399   1.085       .  S
C2394      C2395   1.361       .  D
C2400      C2402   1.534       .  S
C2400      C2404   1.538       .  S
C2400      C2403   1.626       .  S
C2401      C2487   1.508       .  S
C2401      C2405   1.519       .  S
C2401      C2407   1.514       .  S
C2401      C2406   1.566       .  S
C2402      C2410   1.379       .  A
C2402      C2405   1.387       .  A
C2403      C2414   1.433       .  A
C2403      C2406   1.422       .  A
C2404      C2418   1.367       .  A
C2404      C2407   1.352       .  A
C2405      C2408   1.373       .  A
C2406      C2412   1.398       .  A
C2407      C2415   1.380       .  A
C2408      N2409   1.347       .  A
C2408      H2421   1.078       .  S
N2409      C2437   1.441       .  S
N2409      C2410   1.358       .  A
C2410      H2411   1.074       .  S
N2413      N2507   1.450       .  S
C2415      N2416   1.358       .  A
C2415      H2417   1.068       .  S
N2416      C2425   1.480       .  S
N2416      C2418   1.375       .  A
C2418      H2419   1.063       .  S
C2423      C2424   1.553       .  S
C2423      C2429   1.552       .  S
C2423      C2427   1.548       .  S
C2423      C2709   1.525       .  S
C2424      H2431   1.086       .  S
C2424      C2425   1.345       .  D
C2425      C2426   1.583       .  S
C2426      C2430   1.616       .  S
C2426      C2428   1.616       .  S
C2426      H2432   1.110       .  S
C2427      H2433   1.081       .  S
C2427      C2428   1.354       .  D
C2428      C2542   1.588       .  S
C2429      H2434   1.085       .  S
C2429      C2430   1.361       .  D
C2430      C2447   1.603       .  S
C2435      C2436   1.572       .  S
C2435      C2441   1.543       .  S
C2435      C2439   1.537       .  S
C2435      C2700   1.516       .  S
C2436      H2443   1.080       .  S
C2436      C2437   1.352       .  D
C2437      C2438   1.514       .  S
C2438      C2442   1.522       .  S
C2438      C2440   1.556       .  S
C2438      H2444   1.112       .  S
C2439      H2445   1.074       .  S
C2439      C2440   1.360       .  D
C2440      C2564   1.507       .  S
C2441      H2446   1.085       .  S
C2441      C2442   1.345       .  D
C2447      C2449   1.516       .  S
C2447      C2451   1.520       .  S
C2447      C2450   1.625       .  S
C2448      C2536   1.601       .  S
C2448      C2452   1.525       .  S
C2448      C2454   1.514       .  S
C2448      C2453   1.616       .  S
C2449      C2457   1.378       .  A
C2449      C2452   1.397       .  A
C2450      C2461   1.425       .  A
C2450      C2453   1.441       .  A
C2451      C2465   1.376       .  A
C2451      C2454   1.393       .  A
C2452      C2455   1.380       .  A
C2453      C2459   1.422       .  A
C2454      C2462   1.377       .  A
C2455      N2456   1.349       .  A
C2455      H2468   1.072       .  S
N2456      C2489   1.438       .  S
N2456      C2457   1.344       .  A
C2457      H2458   1.081       .  S
C2459      N2460   1.383       .  A
C2459      H2469   1.082       .  S
N2460      C2461   1.386       .  A
C2461      H2467   1.081       .  S
C2462      N2463   1.344       .  A
C2462      H2464   1.080       .  S
N2463      C2477   1.435       .  S
N2463      C2465   1.348       .  A
C2465      H2466   1.071       .  S
C2470      C2471   1.551       .  S
C2470      C2476   1.561       .  S
C2470      C2474   1.525       .  S
C2470      C2685   1.496       .  S
C2471      H2478   1.086       .  S
C2471      C2472   1.345       .  D
C2472      C2473   1.521       .  S
C2472      N2557   1.428       .  S
C2473      C2477   1.527       .  S
C2473      C2475   1.557       .  S
C2473      H2479   1.112       .  S
C2474      H2480   1.078       .  S
C2474      C2475   1.347       .  D
C2475      C2495   1.505       .  S
C2476      H2481   1.083       .  S
C2476      C2477   1.363       .  D
C2482      C2483   1.546       .  S
C2482      C2488   1.563       .  S
C2482      C2486   1.528       .  S
C2482      C2673   1.496       .  S
C2483      H2490   1.086       .  S
C2483      C2484   1.342       .  D
C2484      C2485   1.520       .  S
C2484      N2580   1.423       .  S
C2485      C2489   1.527       .  S
C2485      C2487   1.556       .  S
C2485      H2491   1.112       .  S
C2486      H2492   1.079       .  S
C2486      C2487   1.350       .  D
C2488      H2493   1.083       .  S
C2488      C2489   1.365       .  D
C2494      C2496   1.528       .  S
C2494      C2498   1.539       .  S
C2494      C2497   1.628       .  S
C2495      C2499   1.513       .  S
C2495      C2501   1.513       .  S
C2495      C2500   1.566       .  S
C2496      C2504   1.374       .  A
C2496      C2499   1.381       .  A
C2497      C2508   1.433       .  A
C2497      C2500   1.423       .  A
C2498      C2512   1.367       .  A
C2498      C2501   1.355       .  A
C2499      C2502   1.369       .  A
C2500      C2506   1.398       .  A
C2501      C2509   1.380       .  A
C2502      N2503   1.346       .  A
C2502      H2515   1.077       .  S
N2503      C2519   1.436       .  S
N2503      C2504   1.357       .  A
C2504      H2505   1.071       .  S
C2506      N2507   1.362       .  A
C2506      H2516   1.078       .  S
N2507      C2508   1.388       .  A
C2508      H2514   1.081       .  S
C2509      N2510   1.356       .  A
C2509      H2511   1.069       .  S
N2510      C2531   1.483       .  S
N2510      C2512   1.378       .  A
C2512      H2513   1.068       .  S
C2517      C2518   1.566       .  S
C2517      C2523   1.543       .  S
C2517      C2521   1.532       .  S
C2517      C2664   1.511   1_554  S
C2518      H2525   1.081       .  S
C2518      C2519   1.346       .  D
C2519      C2520   1.515       .  S
C2520      C2524   1.528       .  S
C2520      C2522   1.555       .  S
C2520      H2526   1.112       .  S
C2521      H2527   1.068   1_554  S
C2521      C2522   1.356       .  D
C2522      C2541   1.508       .  S
C2523      H2528   1.085       .  S
C2523      C2524   1.349       .  D
C2529      C2530   1.552       .  S
C2529      C2535   1.559       .  S
C2529      C2533   1.537       .  S
C2529      C2649   1.521       .  S
C2530      H2537   1.086       .  S
C2530      C2531   1.349       .  D
C2531      C2532   1.586       .  S
C2532      C2536   1.616       .  S
C2532      C2534   1.609       .  S
C2532      H2538   1.110       .  S
C2533      H2539   1.086       .  S
C2533      C2534   1.348       .  D
C2534      C2565   1.579       .  S
C2535      H2540   1.081       .  S
C2535      C2536   1.364       .  D
C2541      C2543   1.504       .  S
C2541      C2545   1.511       .  S
C2541      C2544   1.555       .  S
C2542      C2546   1.539       .  S
C2542      C2548   1.532       .  S
C2542      C2547   1.633       .  S
C2543      C2551   1.373       .  A
C2543      C2546   1.352       .  A
C2544      C2947   1.389   1_554  A
C2544      C2547   1.423       .  A
C2545      C2559   1.365       .  A
C2545      C2548   1.394       .  A
C2546      C2549   1.365       .  A
C2547      C2945   1.437   1_554  A
C2548      C2556   1.376       .  A
C2549      N2550   1.377       .  A
C2549      H2562   1.063       .  S
N2550      C2551   1.355       .  A
C2551      H2552   1.065       .  S
C2553      C2939   1.437       .  A
C2553      N2554   1.391       .  A
C2553      H2563   1.081       .  S
N2554      C2555   1.355       .  A
N2554      N2577   1.447       .  S
C2555      C2936   1.389       .  A
C2555      H2561   1.077       .  S
C2556      N2557   1.353       .  A
C2556      H2558   1.075       .  S
N2557      C2559   1.340       .  A
C2559      H2560   1.077       .  S
C2564      C2566   1.508       .  S
C2564      C2568   1.511       .  S
C2564      C2567   1.554       .  S
C2565      C2569   1.539       .  S
C2565      C2571   1.524       .  S
C2565      C2570   1.629       .  S
C2566      C2574   1.375       .  A
C2566      C2569   1.351       .  A
C2567      C2578   1.389       .  A
C2567      C2570   1.422       .  A
C2568      C2582   1.363       .  A
C2568      C2571   1.393       .  A
C2569      C2572   1.363       .  A
C2570      C2576   1.435       .  A
C2571      C2579   1.371       .  A
C2572      N2573   1.377       .  A
C2572      H2585   1.055       .  S
N2573      C2574   1.358       .  A
C2574      H2575   1.067       .  S
C2576      N2577   1.390       .  A
C2576      H2586   1.081       .  S
N2577      C2578   1.359       .  A
C2578      H2584   1.079       .  S
C2579      N2580   1.351       .  A
C2579      H2581   1.073       .  S
N2580      C2582   1.339       .  A
C2582      H2583   1.077       .  S
O2587     Zr2599   2.391   1_455  S
C2589      C3125   1.439       .  S
O2590     Zr2602   2.445       .  S
O2590      C2592   1.286       .  A
O2591     Zr2626   2.378       .  S
O2591      C2592   1.280       .  A
C2592      C3080   1.452       .  S
O2593     Zr2602   2.413   1_455  S
O2594      C2595   1.275       .  A
C2595      C2661   1.454       .  S
O2596     Zr2599   2.399       .  S
O2596      C2598   1.276       .  A
O2597      C2598   1.288       .  A
C2598      C3104   1.455       .  S
Zr2599     O2992   2.434       .  S
Zr2599     O2601   2.443       .  S
Zr2599     O2629   2.371       .  S
Zr2599     O2631   2.352   1_655  S
O2600     Zr2991   2.434   1_554  S
O2601      H2642   0.987   1_655  S
O2601      H3038   0.989       .  S
Zr2602     O2995   2.445       .  S
Zr2602     O2604   2.438       .  S
Zr2602     O2606   2.374       .  S
Zr2602     O2605   2.386   1_655  S
Zr2602     O2630   2.382   1_655  S
Zr2602     O2632   2.338       .  S
O2603     Zr2994   2.445   1_554  S
O2603      H2644   0.987       .  S
O2603      H2647   0.990       .  S
O2604      H2637   0.989   1_655  S
O2605     Zr2625   2.424       .  S
O2606     Zr2626   2.372       .  S
O2606      H3025   0.956       .  S
O2607     Zr2619   2.447       .  S
O2607      C2609   1.287       .  A
O2608      C2609   1.280       .  A
C2609      C2676   1.452       .  S
O2610     Zr2622   2.385   1_455  S
O2611      C2612   1.270       .  A
C2612      C2721   1.450       .  S
O2613     Zr2622   2.398       .  S
O2613      C2615   1.278       .  A
O2614     Zr2626   2.435       .  S
O2614      C2615   1.289       .  A
C2615      C2652   1.460       .  S
O2616     Zr2619   2.407   1_455  S
C2618      C2697   1.448       .  S
Zr2619     O2620   2.441       .  S
Zr2619     O2621   2.437       .  S
Zr2619     O2631   2.392   1_655  S
Zr2619     O2629   2.335       .  S
O2620      H2640   0.988       .  S
O2620      H2645   0.990       .  S
O2621      H2641   0.990       .  S
Zr2622     O2623   2.434       .  S
Zr2622     O2624   2.433       .  S
Zr2622     O2628   2.374   1_655  S
Zr2622     O2627   2.331       .  S
Zr2622     O2632   2.369       .  S
Zr2622     O2630   2.357   1_655  S
O2623      H2639   0.990       .  S
O2624      H2638   0.989       .  S
O2624      H2648   0.990       .  S
Zr2625     O2628   2.432       .  S
Zr2625     O2630   2.448       .  S
Zr2626     O2627   2.370       .  S
Zr2626     O2632   2.376       .  S
O2627      H2635   0.958       .  S
O2630      H2634   0.964       .  S
O2631      H2636   0.965       .  S
H2633      O2998   0.956   1_554  S
H2646      O2993   0.989   1_554  S
C2649      C2650   1.416       .  A
C2649      C2654   1.414       .  A
C2650      C2651   1.390       .  A
C2650      H2659   1.083       .  S
C2651      C2652   1.400       .  A
C2651      S2655   1.802       .  S
C2652      C2653   1.406       .  A
C2653      C2654   1.392       .  A
C2653      H2660   1.084       .  S
C2654      S2656   1.804       .  S
S2655      H2658   1.405       .  S
S2656      H2657   1.407       .  S
C2661      C2662   1.400       .  A
C2661      C3058   1.405       .  A
C2662      C2663   1.395       .  A
C2662      H2671   1.080       .  S
C2663      C3056   1.412       .  A
C2663      S2667   1.800       .  S
C2664      C3055   1.412       .  A
C2664      C2665   1.406   1_556  A
C2665      C2666   1.387       .  A
C2665      H2672   1.081       .  S
C2666      C3053   1.405   1_554  A
C2666      S2668   1.810       .  S
S2667      H2670   1.409       .  S
S2668      H2669   1.405       .  S
C2673      C2674   1.394       .  A
C2673      C2678   1.420       .  A
C2674      C2675   1.381       .  A
C2674      H2683   1.081       .  S
C2675      C2676   1.415       .  A
C2675      S2679   1.799       .  S
C2676      C2677   1.396       .  A
C2677      C2678   1.390       .  A
C2677      H2684   1.083       .  S
C2678      S2680   1.810       .  S
S2679      H2682   1.406       .  S
S2680      H2681   1.408       .  S
C2685      C2686   1.393       .  A
C2685      C2690   1.417       .  A
C2686      C2687   1.383       .  A
C2686      H2695   1.081       .  S
C2687      C2688   1.418       .  A
C2687      S2691   1.799       .  S
C2688      C3081   1.398       .  A
C2688      C2984   1.452       .  S
C2689      C3080   1.398       .  A
C2689      C3082   1.382       .  A
C2689      H2696   1.084       .  S
C2690      C3081   1.382       .  A
C2690      S3084   1.802       .  S
S2691      H2694   1.403       .  S
S2692      C3082   1.802       .  S
S2692      H3085   1.404       .  S
H2693      S3084   1.404       .  S
C2697      C2698   1.405       .  A
C2697      C2702   1.408       .  A
C2698      C2699   1.398       .  A
C2698      H2707   1.083       .  S
C2699      C2700   1.409       .  A
C2699      S2703   1.802       .  S
C2700      C2701   1.407       .  A
C2701      C2702   1.386       .  A
C2701      H2708   1.081       .  S
C2702      S2704   1.814       .  S
S2703      H2706   1.407       .  S
C2709      C2710   1.409       .  A
C2709      C2714   1.417       .  A
C2710      C2711   1.387       .  A
C2710      H2719   1.084       .  S
C2711      C2712   1.408       .  A
C2712      C2713   1.402       .  A
C2712      C2990   1.455   1_554  S
C2713      C2714   1.398       .  A
C2713      H3112   1.085   1_554  S
C2714      S2716   1.806   1_554  S
S2715      H2718   1.406   1_545  S
S2716      H2717   1.407   1_556  S
H2720      C3105   1.085       .  S
C2721      C2722   1.405       .  A
C2721      C2726   1.403       .  A
C2722      C2723   1.390       .  A
C2722      H2731   1.085       .  S
C2723      C2724   1.408       .  A
C2723      S2727   1.803       .  S
C2724      C2725   1.400       .  A
C2725      C2726   1.391       .  A
C2725      H2732   1.083       .  S
C2726      S2728   1.792       .  S
S2727      H2730   1.406       .  S
S2728      H2729   1.406       .  S
C2733      C2734   1.395       .  A
C2733      C2738   1.407       .  A
C2733      C2981   1.439       .  S
C2734      C2735   1.392       .  A
C2734      H3135   1.083   1_554  S
C2735      C2736   1.420       .  A
C2735      S2739   1.807       .  S
C2736      C2737   1.402       .  A
C2737      C2738   1.386       .  A
C2737      H2744   1.082       .  S
S2739      H2742   1.402       .  S
S2740      H2741   1.408       .  S
H2743      C3126   1.083       .  S
C2745      C2746   1.547       .  S
C2745      C2751   1.548       .  S
C2745      C2749   1.553       .  S
C2745      C3128   1.522       .  S
C2746      H2753   1.085       .  S
C2746      C2747   1.338       .  D
C2747      C2748   1.581       .  S
C2747      N2942   1.474       .  S
C2748      C2752   1.615       .  S
C2748      C2750   1.609       .  S
C2748      H2754   1.110       .  S
C2749      H2755   1.080       .  S
C2749      C2750   1.345       .  D
C2750      C2792   1.577       .  S
C2751      H2756   1.085       .  S
C2751      C2752   1.362       .  D
C2752      C2758   1.595       .  S
C2757      C2787   1.601       .  S
C2757      C2759   1.503       .  S
C2757      C2761   1.515       .  S
C2757      C2760   1.625       .  S
C2758      C2762   1.511       .  S
C2758      C2764   1.506       .  S
C2758      C2763   1.620       .  S
C2759      C2767   1.367       .  A
C2759      C2762   1.393       .  A
C2760      C2763   1.441       .  A
C2761      C2775   1.369       .  A
C2761      C2764   1.397       .  A
C2762      C2765   1.366       .  A
C2764      C2772   1.368       .  A
C2765      N2766   1.343       .  A
C2765      H2778   1.069       .  S
N2766      C2834   1.420       .  S
N2766      C2767   1.338       .  A
C2767      H2768   1.081       .  S
C2769      N2770   1.384       .  A
C2769      H2779   1.082       .  S
N2770      C2771   1.386       .  A
N2770      N2852   1.466       .  S
C2771      H2777   1.082       .  S
C2772      N2773   1.339       .  A
C2772      H2774   1.082       .  S
N2773      C2916   1.422       .  S
N2773      C2775   1.344       .  A
C2775      H2776   1.072       .  S
C2780      C2781   1.557       .  S
C2780      C2786   1.546       .  S
C2780      C2784   1.545       .  S
C2780      C3116   1.520       .  S
C2781      H2788   1.084       .  S
C2781      C2782   1.338       .  D
C2782      C2783   1.582       .  S
C2782      N2965   1.477       .  S
C2783      C2787   1.623       .  S
C2783      C2785   1.610       .  S
C2783      H2789   1.110       .  S
C2784      H2790   1.082       .  S
C2784      C2785   1.345       .  D
C2785      C2886   1.574       .  S
C2786      H2791   1.085       .  S
C2786      C2787   1.361       .  D
C2792      C2794   1.534       .  S
C2792      C2796   1.538       .  S
C2792      C2795   1.626       .  S
C2793      C2879   1.508       .  S
C2793      C2797   1.519       .  S
C2793      C2799   1.514       .  S
C2793      C2798   1.566       .  S
C2794      C2802   1.379       .  A
C2794      C2797   1.387       .  A
C2795      C2806   1.433       .  A
C2795      C2798   1.422       .  A
C2796      C2810   1.367       .  A
C2796      C2799   1.352       .  A
C2797      C2800   1.373       .  A
C2798      C2804   1.398       .  A
C2799      C2807   1.380       .  A
C2800      N2801   1.347       .  A
C2800      H2813   1.078       .  S
N2801      C2829   1.441       .  S
N2801      C2802   1.358       .  A
C2802      H2803   1.074       .  S
N2805      N2899   1.450       .  S
C2807      N2808   1.358       .  A
C2807      H2809   1.068       .  S
N2808      C2817   1.480       .  S
N2808      C2810   1.375       .  A
C2810      H2811   1.063       .  S
C2815      C2816   1.553       .  S
C2815      C2821   1.552       .  S
C2815      C2819   1.548       .  S
C2815      C3101   1.525       .  S
C2816      H2823   1.086       .  S
C2816      C2817   1.345       .  D
C2817      C2818   1.583       .  S
C2818      C2822   1.616       .  S
C2818      C2820   1.616       .  S
C2818      H2824   1.110       .  S
C2819      H2825   1.081       .  S
C2819      C2820   1.354       .  D
C2820      C2934   1.588       .  S
C2821      H2826   1.085       .  S
C2821      C2822   1.361       .  D
C2822      C2839   1.603       .  S
C2827      C2828   1.572       .  S
C2827      C2833   1.543       .  S
C2827      C2831   1.537       .  S
C2827      C3092   1.516       .  S
C2828      H2835   1.080       .  S
C2828      C2829   1.352       .  D
C2829      C2830   1.514       .  S
C2830      C2834   1.522       .  S
C2830      C2832   1.556       .  S
C2830      H2836   1.112       .  S
C2831      H2837   1.074       .  S
C2831      C2832   1.360       .  D
C2832      C2956   1.507       .  S
C2833      H2838   1.085       .  S
C2833      C2834   1.345       .  D
C2839      C2841   1.516       .  S
C2839      C2843   1.520       .  S
C2839      C2842   1.625       .  S
C2840      C2928   1.601       .  S
C2840      C2844   1.525       .  S
C2840      C2846   1.514       .  S
C2840      C2845   1.616       .  S
C2841      C2849   1.378       .  A
C2841      C2844   1.397       .  A
C2842      C2853   1.425       .  A
C2842      C2845   1.441       .  A
C2843      C2857   1.376       .  A
C2843      C2846   1.393       .  A
C2844      C2847   1.380       .  A
C2845      C2851   1.422       .  A
C2846      C2854   1.377       .  A
C2847      N2848   1.349       .  A
C2847      H2860   1.072       .  S
N2848      C2881   1.438       .  S
N2848      C2849   1.344       .  A
C2849      H2850   1.081       .  S
C2851      N2852   1.383       .  A
C2851      H2861   1.082       .  S
N2852      C2853   1.386       .  A
C2853      H2859   1.081       .  S
C2854      N2855   1.344       .  A
C2854      H2856   1.080       .  S
N2855      C2869   1.435       .  S
N2855      C2857   1.348       .  A
C2857      H2858   1.071       .  S
C2862      C2863   1.551       .  S
C2862      C2868   1.561       .  S
C2862      C2866   1.525       .  S
C2862      C3077   1.496       .  S
C2863      H2870   1.086       .  S
C2863      C2864   1.345       .  D
C2864      C2865   1.521       .  S
C2864      N2949   1.428       .  S
C2865      C2869   1.527       .  S
C2865      C2867   1.557       .  S
C2865      H2871   1.112       .  S
C2866      H2872   1.078       .  S
C2866      C2867   1.347       .  D
C2867      C2887   1.505       .  S
C2868      H2873   1.083       .  S
C2868      C2869   1.363       .  D
C2874      C2875   1.546       .  S
C2874      C2880   1.563       .  S
C2874      C2878   1.528       .  S
C2874      C3065   1.496       .  S
C2875      H2882   1.086       .  S
C2875      C2876   1.342       .  D
C2876      C2877   1.520       .  S
C2876      N2972   1.423       .  S
C2877      C2881   1.527       .  S
C2877      C2879   1.556       .  S
C2877      H2883   1.112       .  S
C2878      H2884   1.079       .  S
C2878      C2879   1.350       .  D
C2880      H2885   1.083       .  S
C2880      C2881   1.365       .  D
C2886      C2888   1.528       .  S
C2886      C2890   1.539       .  S
C2886      C2889   1.628       .  S
C2887      C2891   1.513       .  S
C2887      C2893   1.513       .  S
C2887      C2892   1.566       .  S
C2888      C2896   1.374       .  A
C2888      C2891   1.381       .  A
C2889      C2900   1.433       .  A
C2889      C2892   1.423       .  A
C2890      C2904   1.367       .  A
C2890      C2893   1.355       .  A
C2891      C2894   1.369       .  A
C2892      C2898   1.398       .  A
C2893      C2901   1.380       .  A
C2894      N2895   1.346       .  A
C2894      H2907   1.077       .  S
N2895      C2911   1.436       .  S
N2895      C2896   1.357       .  A
C2896      H2897   1.071       .  S
C2898      N2899   1.362       .  A
C2898      H2908   1.078       .  S
N2899      C2900   1.388       .  A
C2900      H2906   1.081       .  S
C2901      N2902   1.356       .  A
C2901      H2903   1.069       .  S
N2902      C2923   1.483       .  S
N2902      C2904   1.378       .  A
C2904      H2905   1.068       .  S
C2909      C2910   1.566       .  S
C2909      C2915   1.543       .  S
C2909      C2913   1.532       .  S
C2909      C3056   1.511       .  S
C2910      H2917   1.081       .  S
C2910      C2911   1.346       .  D
C2911      C2912   1.515       .  S
C2912      C2916   1.528       .  S
C2912      C2914   1.555       .  S
C2912      H2918   1.112       .  S
C2913      H2919   1.068       .  S
C2913      C2914   1.356       .  D
C2914      C2933   1.508       .  S
C2915      H2920   1.085       .  S
C2915      C2916   1.349       .  D
C2921      C2922   1.552       .  S
C2921      C2927   1.559       .  S
C2921      C2925   1.537       .  S
C2921      C3041   1.521       .  S
C2922      H2929   1.086       .  S
C2922      C2923   1.349       .  D
C2923      C2924   1.586       .  S
C2924      C2928   1.616       .  S
C2924      C2926   1.609       .  S
C2924      H2930   1.110       .  S
C2925      H2931   1.086       .  S
C2925      C2926   1.348       .  D
C2926      C2957   1.579       .  S
C2927      H2932   1.081       .  S
C2927      C2928   1.364       .  D
C2933      C2935   1.504       .  S
C2933      C2937   1.511       .  S
C2933      C2936   1.555       .  S
C2934      C2938   1.539       .  S
C2934      C2940   1.532       .  S
C2934      C2939   1.633       .  S
C2935      C2943   1.373       .  A
C2935      C2938   1.352       .  A
C2936      C2939   1.423       .  A
C2937      C2951   1.365       .  A
C2937      C2940   1.394       .  A
C2938      C2941   1.365       .  A
C2940      C2948   1.376       .  A
C2941      N2942   1.377       .  A
C2941      H2954   1.063       .  S
N2942      C2943   1.355       .  A
C2943      H2944   1.065       .  S
C2945      N2946   1.391       .  A
C2945      H2955   1.081       .  S
N2946      C2947   1.355       .  A
N2946      N2969   1.447       .  S
C2947      H2953   1.077       .  S
C2948      N2949   1.353       .  A
C2948      H2950   1.075       .  S
N2949      C2951   1.340       .  A
C2951      H2952   1.077       .  S
C2956      C2958   1.508       .  S
C2956      C2960   1.511       .  S
C2956      C2959   1.554       .  S
C2957      C2961   1.539       .  S
C2957      C2963   1.524       .  S
C2957      C2962   1.629       .  S
C2958      C2966   1.375       .  A
C2958      C2961   1.351       .  A
C2959      C2970   1.389       .  A
C2959      C2962   1.422       .  A
C2960      C2974   1.363       .  A
C2960      C2963   1.393       .  A
C2961      C2964   1.363       .  A
C2962      C2968   1.435       .  A
C2963      C2971   1.371       .  A
C2964      N2965   1.377       .  A
C2964      H2977   1.055       .  S
N2965      C2966   1.358       .  A
C2966      H2967   1.067       .  S
C2968      N2969   1.390       .  A
C2968      H2978   1.081       .  S
N2969      C2970   1.359       .  A
C2970      H2976   1.079       .  S
C2971      N2972   1.351       .  A
C2971      H2973   1.073       .  S
N2972      C2974   1.339       .  A
C2974      H2975   1.077       .  S
O2979     Zr2991   2.391   1_454  S
O2982     Zr2994   2.445   1_554  S
O2982      C2984   1.286       .  A
O2983     Zr3018   2.378       .  S
O2983      C2984   1.280   1_556  A
O2985     Zr2994   2.413   1_455  S
O2986      C2987   1.275       .  A
C2987      C3053   1.454       .  S
O2988     Zr2991   2.399   1_554  S
O2988      C2990   1.276   1_554  A
O2989      C2990   1.288       .  A
Zr2991     O2993   2.443       .  S
Zr2991     O3021   2.371       .  S
Zr2991     O3023   2.352   1_655  S
O2993      H3034   0.987   1_655  S
Zr2994     O2996   2.438       .  S
Zr2994     O2998   2.374       .  S
Zr2994     O2997   2.386   1_655  S
Zr2994     O3022   2.382   1_655  S
Zr2994     O3024   2.338       .  S
O2995      H3036   0.987       .  S
O2995      H3039   0.990       .  S
O2996      H3029   0.989   1_655  S
O2997     Zr3017   2.424       .  S
O2998     Zr3018   2.372       .  S
O2999     Zr3011   2.447       .  S
O2999      C3001   1.287       .  A
O3000      C3001   1.280       .  A
C3001      C3068   1.452       .  S
O3002     Zr3014   2.385   1_455  S
O3003      C3004   1.270       .  A
C3004      C3113   1.450       .  S
O3005     Zr3014   2.398       .  S
O3005      C3007   1.278       .  A
O3006     Zr3018   2.435       .  S
O3006      C3007   1.289       .  A
C3007      C3044   1.460       .  S
O3008     Zr3011   2.407   1_455  S
C3010      C3089   1.448       .  S
Zr3011     O3012   2.441       .  S
Zr3011     O3013   2.437       .  S
Zr3011     O3023   2.392   1_655  S
Zr3011     O3021   2.335       .  S
O3012      H3032   0.988       .  S
O3012      H3037   0.990       .  S
O3013      H3033   0.990       .  S
Zr3014     O3015   2.434       .  S
Zr3014     O3016   2.433       .  S
Zr3014     O3020   2.374   1_655  S
Zr3014     O3019   2.331       .  S
Zr3014     O3024   2.369       .  S
Zr3014     O3022   2.357   1_655  S
O3015      H3031   0.990       .  S
O3016      H3030   0.989       .  S
O3016      H3040   0.990       .  S
Zr3017     O3020   2.432       .  S
Zr3017     O3022   2.448       .  S
Zr3018     O3019   2.370       .  S
Zr3018     O3024   2.376       .  S
O3019      H3027   0.958       .  S
O3022      H3026   0.964       .  S
O3023      H3028   0.965       .  S
C3041      C3042   1.416       .  A
C3041      C3046   1.414       .  A
C3042      C3043   1.390       .  A
C3042      H3051   1.083       .  S
C3043      C3044   1.400       .  A
C3043      S3047   1.802       .  S
C3044      C3045   1.406       .  A
C3045      C3046   1.392       .  A
C3045      H3052   1.084       .  S
C3046      S3048   1.804       .  S
S3047      H3050   1.405       .  S
S3048      H3049   1.407       .  S
C3053      C3054   1.400       .  A
C3054      C3055   1.395       .  A
C3054      H3063   1.080       .  S
C3055      S3059   1.800       .  S
C3056      C3057   1.406       .  A
C3057      C3058   1.387       .  A
C3057      H3064   1.081       .  S
C3058      S3060   1.810       .  S
S3059      H3062   1.409       .  S
S3060      H3061   1.405       .  S
C3065      C3066   1.394       .  A
C3065      C3070   1.420       .  A
C3066      C3067   1.381       .  A
C3066      H3075   1.081       .  S
C3067      C3068   1.415       .  A
C3067      S3071   1.799       .  S
C3068      C3069   1.396       .  A
C3069      C3070   1.390       .  A
C3069      H3076   1.083       .  S
C3070      S3072   1.810       .  S
S3071      H3074   1.406       .  S
S3072      H3073   1.408       .  S
C3077      C3078   1.393       .  A
C3077      C3082   1.417       .  A
C3078      C3079   1.383       .  A
C3078      H3087   1.081       .  S
C3079      C3080   1.418       .  A
C3079      S3083   1.799       .  S
C3081      H3088   1.084       .  S
S3083      H3086   1.403       .  S
C3089      C3090   1.405       .  A
C3089      C3094   1.408       .  A
C3090      C3091   1.398       .  A
C3090      H3099   1.083       .  S
C3091      C3092   1.409       .  A
C3091      S3095   1.802       .  S
C3092      C3093   1.407       .  A
C3093      C3094   1.386       .  A
C3093      H3100   1.081       .  S
C3094      S3096   1.814       .  S
S3095      H3098   1.407       .  S
C3101      C3102   1.409       .  A
C3101      C3106   1.417       .  A
C3102      C3103   1.387       .  A
C3102      H3111   1.084       .  S
C3103      C3104   1.408       .  A
C3104      C3105   1.402       .  A
C3105      C3106   1.398       .  A
C3106      S3108   1.806       .  S
S3107      H3110   1.406   1_545  S
S3108      H3109   1.407       .  S
C3113      C3114   1.405       .  A
C3113      C3118   1.403       .  A
C3114      C3115   1.390       .  A
C3114      H3123   1.085       .  S
C3115      C3116   1.408       .  A
C3115      S3119   1.803       .  S
C3116      C3117   1.400       .  A
C3117      C3118   1.391       .  A
C3117      H3124   1.083       .  S
C3118      S3120   1.792       .  S
S3119      H3122   1.406       .  S
S3120      H3121   1.406       .  S
C3125      C3126   1.395       .  A
C3125      C3130   1.407       .  A
C3126      C3127   1.392       .  A
C3127      C3128   1.420       .  A
C3127      S3131   1.807       .  S
C3128      C3129   1.402       .  A
C3129      C3130   1.386       .  A
C3129      H3136   1.082       .  S
S3131      H3134   1.402       .  S
S3132      H3133   1.408       .  S
