geometry optimzed in LAMMPS
_audit_creation_date              2020-12-01 
_audit_creation_method            'lammps2cif' 
_symmetry_space_group_name_H-M    'P1' 
_symmetry_Int_Tables_number       1 
_symmetry_cell_setting            triclinic 
loop_ 
_symmetry_equiv_pos_as_xyz 
  x,y,z 
_cell_length_a                    36.47829301 
_cell_length_b                    36.75527262885341 
_cell_length_c                    38.068046194488446 
_cell_angle_alpha                 92.22810006936967 
_cell_angle_beta                  89.90739055327839 
_cell_angle_gamma                 89.85145961218785 
loop_ 
_atom_site_label 
_atom_site_type_symbol 
_atom_site_fract_x 
_atom_site_fract_y 
_atom_site_fract_z 
_atom_site_charge 
C1          C  0.20903817  0.21429883  0.20669630     0.86200
C2          C  0.23116148  0.19219449  0.23299386    -0.54100
C3          C  0.25187703  0.21267390  0.25610801     0.09100
C4          C  0.24835839  0.25412518  0.25091418     0.20100
C5          C  0.18650274  0.24129592  0.22953316    -0.54800
C6          C  0.20651856  0.26225764  0.25291800     0.09200
C7          C  0.23819880  0.23755867  0.18917305    -0.54300
C8          C  0.25913958  0.25838727  0.21189929     0.09800
H9          H  0.23184288  0.16280968  0.23307632     0.14300
H10         H  0.26526741  0.27074155  0.26961913     0.00000
H11         H  0.15700054  0.24388395  0.22677968     0.14600
H12         H  0.24201264  0.23725138  0.16087494     0.14400
C13         C  0.10015234  0.46041474  0.41841416     0.29700
C14         C  0.09769181  0.52153787  0.46295953     0.29700
C15         C  0.12143471  0.49365732  0.40696297    -0.06500
C16         C  0.06138281  0.47682358  0.42502239    -0.07300
C17         C  0.11350459  0.45572326  0.45612942    -0.07200
C18         C  0.12125443  0.52440699  0.42925595    -0.06500
C19         C  0.06035596  0.50795276  0.44797116    -0.07300
C20         C  0.11347825  0.48648386  0.47837931    -0.07200
C21         C  0.14294987  0.54970082  0.41287878    -0.32600
N22         N  0.15378245  0.53576210  0.38086041     0.13900
C23         C  0.14084463  0.50134885  0.37733076    -0.32600
H24         H  0.14360788  0.48354293  0.35418038     0.15900
C25         C  0.02395254  0.51661058  0.45367273    -0.31500
N26         N  0.00281983  0.49214177  0.43514264     0.12700
C27         C  0.02524318  0.46774366  0.41774641    -0.31500
C28         C  0.12837561  0.47590155  0.50979147    -0.31800
N29         N  0.13559437  0.43961098  0.50757367     0.13200
H30         H  0.13341517  0.49309115  0.53286722     0.15800
C31         C  0.12656674  0.42711278  0.47474740    -0.31800
H32         H  0.12962793  0.39930474  0.46481177     0.15800
H33         H  0.01578178  0.44415028  0.40264439     0.15800
H34         H  0.15073946  0.57627535  0.42318585     0.15900
H35         H  0.01372409  0.53849827  0.47082519     0.15800
C36         C  0.20245143  0.75697187  0.67918017     0.86200
C37         C  0.22311900  0.78055158  0.65327239    -0.54100
C38         C  0.24567965  0.76151348  0.63031917     0.09100
C39         C  0.24494871  0.71981452  0.63515256     0.20100
C40         C  0.18225971  0.72864684  0.65571668    -0.54800
C41         C  0.20397231  0.70888020  0.63285434     0.09200
C42         C  0.23257683  0.73484126  0.69692798    -0.54300
C43         C  0.25518831  0.71555675  0.67423494     0.09800
H44         H  0.22136526  0.81007473  0.65427338     0.14300
H45         H  0.26288125  0.70422982  0.61638784     0.00000
H46         H  0.15312177  0.72385442  0.65649831     0.14600
H47         H  0.23534691  0.73428101  0.72529617     0.14400
C48         C  0.44076342  0.10594774  0.42020390     0.29700
C49         C  0.50023055  0.09864516  0.46370660     0.29700
C50         C  0.43806196  0.12447175  0.45690637    -0.06500
C51         C  0.45013310  0.06589175  0.43004644    -0.07300
C52         C  0.47772521  0.11990303  0.40653669    -0.07200
C53         C  0.46784946  0.12080205  0.47880284    -0.06500
C54         C  0.48078345  0.06255932  0.45258448    -0.07300
C55         C  0.50753081  0.11602242  0.42834660    -0.07200
C56         C  0.45830135  0.13594603  0.51121634    -0.32600
N57         N  0.42353252  0.14906311  0.50932541     0.13900
C58         C  0.41099373  0.14198137  0.47618485    -0.32600
H59         H  0.38384386  0.14830110  0.46678979     0.15900
C60         C  0.48121109  0.02720937  0.46360347    -0.31500
N61         N  0.45305670  0.00868639  0.44841646     0.12700
C62         C  0.43392017  0.03150719  0.42781258    -0.31500
C63         C  0.53681382  0.13324829  0.41313672    -0.31800
N64         N  0.52567975  0.14806546  0.38267709     0.13200
H65         H  0.56408992  0.13518115  0.42408244     0.15800
C66         C  0.48942919  0.13989768  0.37857286    -0.31800
H67         H  0.47214896  0.14897397  0.35759322     0.15800
H68         H  0.40993224  0.02341367  0.41295001     0.15800
H69         H  0.47478858  0.13569655  0.53480646     0.15900
H70         H  0.49978644  0.01515130  0.48181174     0.15800
C71         C  0.75367696  0.25157819  0.17435789     0.86200
C72         C  0.77625662  0.27653920  0.19912842    -0.54100
C73         C  0.75650798  0.30186984  0.21831960     0.09100
C74         C  0.71486100  0.30087557  0.20944275     0.20100
C75         C  0.72371145  0.23583902  0.19742800    -0.54800
C76         C  0.70301853  0.26114927  0.21579798     0.09200
C77         C  0.73372868  0.27820444  0.15089092    -0.54300
C78         C  0.71300303  0.30381483  0.16882008     0.09800
H79         H  0.80587588  0.27557787  0.20066586     0.14300
H80         H  0.69824510  0.32172798  0.22416315     0.00000
H81         H  0.71963863  0.20670961  0.19927205     0.14600
H82         H  0.73484604  0.27626891  0.12236650     0.14400
C83         C  0.21553718  0.24037583  0.75124312     0.86200
C84         C  0.19575083  0.26593710  0.72620099    -0.54100
C85         C  0.21861852  0.28777565  0.70779474     0.09100
C86         C  0.25920536  0.28278761  0.71753201     0.20100
C87         C  0.24401513  0.22003263  0.72834181    -0.54800
C88         C  0.26683044  0.24203883  0.71033589     0.09200
C89         C  0.23792461  0.26636046  0.77549642    -0.54300
C90         C  0.26074950  0.28859349  0.75778015     0.09800
H91         H  0.16618488  0.26649862  0.72347703     0.14300
H92         H  0.27823830  0.30038400  0.70340284     0.00000
H93         H  0.24539306  0.19051611  0.72638295     0.14600
H94         H  0.23525920  0.26822652  0.80388656     0.14400
C95         C  0.86866869  0.50708249  0.47090607     0.29700
C96         C  0.86795418  0.46270405  0.41039490     0.29700
C97         C  0.84565946  0.52055918  0.43997918    -0.06500
C98         C  0.90612229  0.49917056  0.45341878    -0.07300
C99         C  0.85265419  0.46836025  0.47461423    -0.07200
C100        C  0.84504359  0.49812591  0.40964350    -0.06500
C101        C  0.90591462  0.47660609  0.42287875    -0.07300
C102        C  0.85246985  0.44596354  0.44400010    -0.07200
C103        C  0.82174021  0.51445734  0.38641524    -0.32600
N104        N  0.81015632  0.54691491  0.40059972     0.13900
C105        C  0.82359614  0.55024738  0.43374232    -0.32600
H106        H  0.81822846  0.57313440  0.45160204     0.15900
C107        C  0.94211805  0.47176481  0.41270719    -0.31500
N108        N  0.96394562  0.49079618  0.43593653     0.12700
C109        C  0.94219884  0.50759623  0.46079463    -0.31500
C110        C  0.83562228  0.41378138  0.45241545    -0.31800
N111        N  0.82645882  0.41552440  0.48687320     0.13200
H112        H  0.82928502  0.39079575  0.43499335     0.15800
C113        C  0.83536035  0.44897165  0.50034534    -0.31800
H114        H  0.82906890  0.45798738  0.52695785     0.15800
H115        H  0.95182570  0.52393389  0.48313403     0.15800
H116        H  0.81313010  0.50352117  0.36108177     0.15900
H117        H  0.95173774  0.45545717  0.39027493     0.15800
C118        C  0.73237231  0.80041972  0.21442150     0.86200
C119        C  0.70658938  0.82499869  0.23692659    -0.54100
C120        C  0.68202948  0.80620824  0.25624730     0.09100
C121        C  0.68534919  0.76456123  0.25136340     0.20100
C122        C  0.74999426  0.77512998  0.24059541    -0.54800
C123        C  0.72562855  0.75594365  0.25982283     0.09200
C124        C  0.70629469  0.77589970  0.19228471    -0.54300
C125        C  0.68197463  0.75644820  0.21152142     0.09800
H126        H  0.70645557  0.85445126  0.23732862     0.14300
H127        H  0.66559912  0.74941086  0.26727343     0.00000
H128        H  0.77950938  0.77264571  0.24322655     0.14600
H129        H  0.70785601  0.77363219  0.16381693     0.14400
C130        C  0.74256959  0.16853703  0.68255025     0.86200
C131        C  0.72073886  0.14462378  0.65575372    -0.54100
C132        C  0.70028061  0.16412409  0.63314967     0.09100
C133        C  0.70319745  0.20556727  0.63931692     0.20100
C134        C  0.76497312  0.19436581  0.65990465    -0.54800
C135        C  0.74417227  0.21358777  0.63741254     0.09200
C136        C  0.71338643  0.19301039  0.70069195    -0.54300
C137        C  0.69307114  0.21278464  0.67813597     0.09800
H138        H  0.72135299  0.11522094  0.65365618     0.14300
H139        H  0.68647907  0.22148779  0.62099067     0.00000
H140        H  0.79447719  0.19769885  0.66199924     0.14600
H141        H  0.71045067  0.19576988  0.72907150     0.14400
C142        C  0.44110694  0.87665218  0.48491495     0.29700
C143        C  0.49552962  0.87955850  0.43528417     0.29700
C144        C  0.43766556  0.84982884  0.45280044    -0.06500
C145        C  0.44614264  0.91381992  0.46732210    -0.07300
C146        C  0.48059608  0.86742952  0.49800290    -0.07200
C147        C  0.46548864  0.85108738  0.42788563    -0.06500
C148        C  0.47357819  0.91444135  0.44194814    -0.07300
C149        C  0.50836230  0.86966400  0.47237276    -0.07200
C150        C  0.45563983  0.82813334  0.40001747    -0.32600
N151        N  0.42216182  0.81404709  0.40667896     0.13900
C152        C  0.41120432  0.82652429  0.43901717    -0.32600
H153        H  0.38487846  0.82054015  0.45048514     0.15900
C154        C  0.47602073  0.94910912  0.43005951    -0.31500
N155        N  0.45095099  0.97030816  0.44730241     0.12700
C156        C  0.43286166  0.94943506  0.47069976    -0.31500
C157        C  0.53620024  0.84648615  0.48197107    -0.31800
N158        N  0.52820844  0.83127548  0.51283763     0.13200
H159        H  0.55909643  0.83852151  0.46551253     0.15800
C160        C  0.49363402  0.84220444  0.52163377    -0.31800
H161        H  0.47765835  0.82946647  0.54156672     0.15800
H162        H  0.41329625  0.95974626  0.49004524     0.15800
H163        H  0.47012849  0.82415307  0.37536434     0.15900
H164        H  0.49639220  0.95894095  0.41205575     0.15800
C165        C  0.23743855  0.73656696  0.14597906     0.86200
C166        C  0.21725837  0.70502381  0.16292927    -0.54100
C167        C  0.23958541  0.68194922  0.18041540     0.09100
C168        C  0.28040542  0.69171534  0.17771990     0.20100
C169        C  0.26013187  0.75443388  0.17589840    -0.54800
C170        C  0.28245384  0.73101362  0.19294581     0.09200
C171        C  0.26565531  0.71739071  0.12141725    -0.54300
C172        C  0.28814513  0.69392292  0.13808830     0.09800
H173        H  0.18763024  0.70240038  0.16249484     0.14300
H174        H  0.29888761  0.67258229  0.19079148     0.00000
H175        H  0.25677491  0.78286422  0.18408386     0.14600
H176        H  0.26750159  0.72071781  0.09335369     0.14400
C177        C  0.75900612  0.71668458  0.71027910     0.86200
C178        C  0.78181072  0.69028463  0.68662864    -0.54100
C179        C  0.76181838  0.66572779  0.66694734     0.09100
C180        C  0.72001578  0.66863704  0.67392680     0.20100
C181        C  0.73143297  0.73343779  0.68509782    -0.54800
C182        C  0.71101584  0.70860772  0.66591583     0.09200
C183        C  0.73602496  0.69164421  0.73289746    -0.54300
C184        C  0.71509068  0.66669143  0.71444131     0.09800
H185        H  0.81131695  0.69072929  0.68426453     0.14300
H186        H  0.70352003  0.64860072  0.65819643     0.00000
H187        H  0.72844684  0.76263957  0.68261011     0.14600
H188        H  0.73616725  0.69389749  0.76142081     0.14400
C189        C  0.52671510  0.45699303  0.05041046     0.29700
C190        C  0.46757487  0.50368964  0.04945334     0.29700
C191        C  0.53009020  0.49272690  0.07312758    -0.06500
C192        C  0.51611700  0.47142484  0.01364567    -0.07300
C193        C  0.48963915  0.44192255  0.06413658    -0.07200
C194        C  0.50039133  0.51608984  0.07177986    -0.06500
C195        C  0.48564247  0.49507483  0.01330704    -0.07300
C196        C  0.45982876  0.46542660  0.06236864    -0.07200
C197        C  0.50822073  0.54681040  0.09207822    -0.32600
N198        N  0.54178327  0.54296801  0.10663264     0.13900
C199        C  0.55517809  0.50977114  0.09570251    -0.32600
H200        H  0.58126155  0.49897479  0.10379311     0.15900
C201        C  0.47858346  0.50199999  0.97851086    -0.31500
N202        N  0.50441510  0.48530799  0.95795610     0.12700
C203        C  0.52719451  0.46599842  0.97876000    -0.31500
C204        C  0.43053235  0.44952708  0.07862445    -0.31800
N205        N  0.44161476  0.41777566  0.09217984     0.13200
H206        H  0.40338163  0.46113187  0.08158747     0.15800
C207        C  0.47773335  0.41314170  0.08403087    -0.31800
H208        H  0.49452847  0.39173582  0.09422295     0.15800
H209        H  0.54895191  0.44819229  0.96917774     0.15800
H210        H  0.49109006  0.57082361  0.09488224     0.15900
H211        H  0.45530701  0.51625396  0.96806576     0.15800
C212        C  0.52073692  0.50728445  0.82578332     0.29700
C213        C  0.46100923  0.46214429  0.83166491     0.29700
C214        C  0.52406982  0.46889863  0.80872054    -0.06500
C215        C  0.51012046  0.49773904  0.86440253    -0.07300
C216        C  0.48400676  0.52125469  0.81140560    -0.07200
C217        C  0.49419943  0.44642242  0.81158552    -0.06500
C218        C  0.47917067  0.47453193  0.86714353    -0.07300
C219        C  0.45419992  0.49852823  0.81442053    -0.07200
C220        C  0.50331481  0.41334196  0.79574805    -0.32600
N221        N  0.53815321  0.41503185  0.78309330     0.13900
C222        C  0.55107587  0.44900225  0.79143762    -0.32600
H223        H  0.57836245  0.45876313  0.78619232     0.15900
C224        C  0.47564334  0.46657861  0.90223467    -0.31500
N225        N  0.50287501  0.48333455  0.92076958     0.12700
C226        C  0.52395651  0.50254294  0.89842700    -0.31500
C227        C  0.42484868  0.51484400  0.79846043    -0.31800
N228        N  0.43591282  0.54699510  0.78551547     0.13200
H229        H  0.39740253  0.50390112  0.79648529     0.15800
C230        C  0.47211151  0.55116058  0.79346792    -0.31800
H231        H  0.48896488  0.57374891  0.78593190     0.15800
H232        H  0.54738858  0.51862518  0.90657780     0.15800
H233        H  0.48553123  0.38991057  0.79395127     0.15900
H234        H  0.45542884  0.44964829  0.91411854     0.15800
N235        N  0.02069778  0.05144513  0.98842156    -0.06400
N236        N  0.02766793  0.07766528  0.01220966    -0.58500
N237        N  0.04466778  0.02065439  0.90812834    -0.06100
N238        N  0.06933963  0.02710930  0.88380006    -0.60700
N239        N  0.01848388  0.04527367  0.90794143    -0.05700
N240        N  0.02465125  0.06876262  0.88333752    -0.58500
N241        N  0.04663597  0.02653469  0.98847177    -0.05400
N242        N  0.07168059  0.03519405  0.01230314    -0.61000
C243        C  0.05949560  0.06706882  0.02705713     0.95700
C244        C  0.05638057  0.05705396  0.86829086     0.95500
N245        N  0.02204632  0.90864045  0.91225717    -0.06600
N246        N  0.02804851  0.88348483  0.88709055    -0.59100
N247        N  0.04831382  0.94133024  0.99118998    -0.04700
N248        N  0.07369343  0.93747222  0.01536956    -0.60400
N249        N  0.02344303  0.91566323  0.99312255    -0.06600
N250        N  0.03143044  0.89384645  0.01877263    -0.59400
N251        N  0.04637744  0.93488205  0.91057669    -0.04400
N252        N  0.06930172  0.92820795  0.88426977    -0.60500
Mn253      Mn  0.04750781  0.98076716  0.94949655     1.18400
C254        C  0.05756766  0.89615883  0.86972742     0.97800
C255        C  0.06276418  0.90790049  0.03260828     0.98500
N256        N  0.93237222  0.04371907  0.90962161    -0.06700
N257        N  0.92459142  0.06597108  0.88426802    -0.63000
N258        N  0.90879835  0.02394642  0.99085933    -0.05500
N259        N  0.88468011  0.03195740  0.01591501    -0.63600
N260        N  0.93423719  0.04916695  0.99008213    -0.06200
N261        N  0.92815281  0.07469290  0.01465745    -0.63200
N262        N  0.90774797  0.01773414  0.91070831    -0.05100
N263        N  0.88266348  0.02173793  0.88631167    -0.63900
Mn264      Mn  0.97638963  0.04843254  0.94901654     1.10700
C265        C  0.89360609  0.05177467  0.86988981     0.99100
C266        C  0.89730382  0.06357065  0.03073767     0.99100
N267        N  0.93678517  0.91422111  0.99490992    -0.06200
N268        N  0.93170042  0.89411806  0.02258387    -0.61600
N269        N  0.90992461  0.93208803  0.91303371    -0.05500
N270        N  0.88593070  0.92350455  0.88812357    -0.58300
N271        N  0.93583257  0.90718728  0.91394915    -0.06800
N272        N  0.93006743  0.88126300  0.88965095    -0.61100
N273        N  0.91114603  0.93933191  0.99361101    -0.05800
N274        N  0.88835782  0.93714682  0.02022320    -0.58300
Mn275      Mn  0.97953363  0.91009454  0.95372143     1.20200
Mn276      Mn  0.90833026  0.97813421  0.95191774     1.10100
Cl277      Cl  0.97795954  0.97934617  0.95099380    -0.86300
C278        C  0.90142779  0.90899609  0.03817506     0.96100
C279        C  0.89891231  0.89178611  0.87361852     0.95900
C280        C  0.77953837  0.79338978  0.77889578    -0.11100
C281        C  0.81779011  0.79717538  0.77646672     0.06000
C282        C  0.83662881  0.77630959  0.75059517    -0.09900
C283        C  0.81820051  0.75109716  0.72876182    -0.11600
C284        C  0.78008603  0.74566611  0.73216528    -0.01300
C285        C  0.76095680  0.76814271  0.75689353    -0.10400
C286        C  0.83844773  0.82195039  0.80115251     0.06000
H287        H  0.86590305  0.77950577  0.74711153     0.07900
H288        H  0.83455882  0.73650745  0.70933971     0.11400
H289        H  0.73155320  0.76545885  0.75978487     0.11700
H290        H  0.76408287  0.80914628  0.79847038     0.08000
C291        C  0.82441316  0.85629366  0.81189606    -0.11200
C292        C  0.84428001  0.87931353  0.83502263    -0.10400
C293        C  0.87848161  0.86839067  0.84796405    -0.01300
C294        C  0.89257160  0.83420076  0.83712522    -0.11500
C295        C  0.87276267  0.81123275  0.81412210    -0.09900
H296        H  0.79828188  0.86554219  0.80212511     0.08000
H297        H  0.83276943  0.90556468  0.84292210     0.11700
H298        H  0.91877168  0.82494375  0.84675571     0.11400
H299        H  0.88413189  0.78473739  0.80691759     0.08000
C300        C  0.60513778  0.57224644  0.82142609    -0.11100
C301        C  0.61016594  0.57344328  0.78459162     0.06000
C302        C  0.58596591  0.55357298  0.76285314    -0.09900
C303        C  0.55782493  0.53330271  0.77707876    -0.11600
C304        C  0.55273847  0.53114840  0.81378688    -0.01300
C305        C  0.57684672  0.55111685  0.83591597    -0.10400
C306        C  0.63903169  0.59634365  0.76805956     0.06000
H307        H  0.58809880  0.55439717  0.73452253     0.07900
H308        H  0.53958704  0.51889766  0.75894832     0.11400
H309        H  0.57382193  0.55094375  0.86407734     0.11700
H310        H  0.62323639  0.58746016  0.83902562     0.08000
C311        C  0.64609546  0.63189795  0.78106479    -0.11200
C312        C  0.67050233  0.65450587  0.76359075    -0.10400
C313        C  0.68878927  0.64225384  0.73260696    -0.01300
C314        C  0.68202338  0.60661616  0.71970588    -0.11500
C315        C  0.65763549  0.58392600  0.73725913    -0.09900
H316        H  0.63181845  0.64271229  0.80415618     0.08000
H317        H  0.67438806  0.68203410  0.77403097     0.11700
H318        H  0.69588946  0.59610940  0.69626670     0.11400
H319        H  0.65322015  0.55655426  0.72659333     0.08000
C320        C  0.09860628  0.83483528  0.09050177    -0.11100
C321        C  0.13628981  0.84238716  0.09055049     0.06000
C322        C  0.14909488  0.87363576  0.07451701    -0.09900
C323        C  0.12476948  0.89614611  0.05725432    -0.11600
C324        C  0.08735008  0.88737078  0.05527495    -0.01300
C325        C  0.07431380  0.85704904  0.07275002    -0.10400
C326        C  0.16245884  0.81623007  0.10482445     0.06000
H327        H  0.17805978  0.88008146  0.07462478     0.07900
H328        H  0.13553644  0.91946887  0.04414386     0.11400
H329        H  0.04554189  0.84988645  0.07175925     0.11700
H330        H  0.08824267  0.81078593  0.10270613     0.08000
C331        C  0.15768382  0.80320078  0.13857308    -0.11200
C332        C  0.18216385  0.77775229  0.15142441    -0.10400
C333        C  0.21127616  0.76387101  0.13042081    -0.01300
C334        C  0.21604469  0.77745553  0.09664703    -0.11500
C335        C  0.19192357  0.80341062  0.08410033    -0.09900
H336        H  0.13527708  0.81303359  0.15509456     0.08000
H337        H  0.17829052  0.76870009  0.17791214     0.11700
H338        H  0.23857648  0.76905313  0.07985109     0.11400
H339        H  0.19600210  0.81318777  0.05790072     0.08000
C340        C  0.33240717  0.62807944  0.07145646    -0.11100
C341        C  0.36456586  0.61885917  0.08922127     0.06000
C342        C  0.37314069  0.63730942  0.12117504    -0.09900
C343        C  0.34894272  0.66286411  0.13620973    -0.11600
C344        C  0.31573596  0.67056401  0.11957810    -0.01300
C345        C  0.30808741  0.65374360  0.08656691    -0.10400
C346        C  0.38758713  0.58785414  0.07662814     0.06000
H347        H  0.39817610  0.63114008  0.13503348     0.07900
H348        H  0.35589018  0.67607150  0.16123654     0.11400
H349        H  0.28250474  0.65901365  0.07329442     0.11700
H350        H  0.32520119  0.61408335  0.04688005     0.08000
C351        C  0.40015371  0.58437365  0.04174252    -0.11200
C352        C  0.42459507  0.55631034  0.03153809    -0.10400
C353        C  0.43596636  0.53060233  0.05575946    -0.01300
C354        C  0.42193260  0.53398791  0.09034760    -0.11500
C355        C  0.39816089  0.56192866  0.10051982    -0.09900
H356        H  0.39257245  0.60443862  0.02296661     0.08000
H357        H  0.43606371  0.55672311  0.00548596     0.11700
H358        H  0.43126396  0.51613867  0.11047067     0.11400
H359        H  0.38870921  0.56379809  0.12754692     0.08000
C360        C  0.66681447  0.76153498  0.59354740    -0.11100
C361        C  0.63080704  0.74802537  0.59319210     0.06000
C362        C  0.62210315  0.71926898  0.61508958    -0.09900
C363        C  0.64865022  0.70508139  0.63756975    -0.11600
C364        C  0.68402557  0.72005116  0.63916770    -0.01300
C365        C  0.69299005  0.74792730  0.61643455    -0.10400
C366        C  0.60237895  0.76551598  0.57132135     0.06000
H367        H  0.59465374  0.70812732  0.61510455     0.07900
H368        H  0.64110016  0.68354765  0.65479136     0.11400
H369        H  0.72021095  0.75963745  0.61678603     0.11700
H370        H  0.67435279  0.78370655  0.57707640     0.08000
C371        C  0.56875089  0.77707713  0.58601885    -0.11200
C372        C  0.54399285  0.79767279  0.56664876    -0.10400
C373        C  0.55193909  0.80680696  0.53178590    -0.01300
C374        C  0.58510954  0.79356715  0.51680674    -0.11500
C375        C  0.60994894  0.77352582  0.53633960    -0.09900
H376        H  0.56234836  0.77162500  0.61310016     0.08000
H377        H  0.51928106  0.80744680  0.57959947     0.11700
H378        H  0.59273355  0.79901189  0.49014308     0.11400
H379        H  0.63550231  0.76468745  0.52419133     0.08000
C380        C  0.32730922  0.72534389  0.28265775    -0.11100
C381        C  0.33794498  0.76146516  0.28954442     0.06000
C382        C  0.33081006  0.78763959  0.26461496    -0.09900
C383        C  0.31360631  0.77770867  0.23290701    -0.11600
C384        C  0.30251719  0.74149888  0.22587324    -0.01300
C385        C  0.30934353  0.71552193  0.25134330    -0.10400
C386        C  0.35781400  0.77172885  0.32206278     0.06000
H387        H  0.33924695  0.81562423  0.26943735     0.07900
H388        H  0.30930447  0.79840269  0.21387763     0.11400
H389        H  0.30020933  0.68768551  0.24768207     0.11700
H390        H  0.33249699  0.70486491  0.30176116     0.08000
C391        C  0.34264726  0.79701684  0.34652902    -0.11200
C392        C  0.36302714  0.80918901  0.37572513    -0.10400
C393        C  0.39914156  0.79683547  0.38038559    -0.01300
C394        C  0.41380051  0.77072321  0.35638130    -0.11500
C395        C  0.39311303  0.75793594  0.32763188    -0.09900
H396        H  0.31540795  0.80790479  0.34255768     0.08000
H397        H  0.35136941  0.82975273  0.39359359     0.11700
H398        H  0.44161455  0.76102248  0.35946162     0.11400
H399        H  0.40520776  0.73847622  0.30887857     0.08000
C400        C  0.80757826  0.15552231  0.75923179    -0.11100
C401        C  0.80950934  0.11755207  0.76113361     0.06000
C402        C  0.79006615  0.09568653  0.73659974    -0.09900
C403        C  0.76866489  0.11141329  0.71091856    -0.11600
C404        C  0.76627366  0.14956929  0.70910648    -0.01300
C405        C  0.78626984  0.17128395  0.73354301    -0.10400
C406        C  0.83122791  0.10076596  0.78899320     0.06000
H407        H  0.79152963  0.06627937  0.73714995     0.07900
H408        H  0.75420514  0.09313103  0.69308425     0.11400
H409        H  0.78497654  0.20070690  0.73296125     0.11700
H410        H  0.82191793  0.17309587  0.77807553     0.08000
C411        C  0.86561067  0.11496690  0.79880816    -0.11200
C412        C  0.88594145  0.09912512  0.82523970    -0.10400
C413        C  0.87230022  0.06872733  0.84212585    -0.01300
C414        C  0.83791972  0.05458508  0.83241911    -0.11500
C415        C  0.81753140  0.07050657  0.80615849    -0.09900
H416        H  0.87699044  0.13803235  0.78574360     0.08000
H417        H  0.91241621  0.11048628  0.83226568     0.11700
H418        H  0.82664259  0.03131600  0.84524686     0.11400
H419        H  0.79082885  0.05940440  0.79959170     0.08000
C420        C  0.61230419  0.36392872  0.73287685    -0.11100
C421        C  0.59821181  0.32842317  0.73111172     0.06000
C422        C  0.56341231  0.32206376  0.74529564    -0.09900
C423        C  0.54360876  0.35035129  0.76193702    -0.11600
C424        C  0.55801568  0.38590988  0.76468183    -0.01300
C425        C  0.59244261  0.39231195  0.74927662    -0.10400
C426        C  0.62052689  0.29788811  0.71603178     0.06000
H427        H  0.55158320  0.29505456  0.74379008     0.07900
H428        H  0.51732676  0.34379370  0.77305419     0.11400
H429        H  0.60453128  0.41909795  0.74993689     0.11700
H430        H  0.63920743  0.36965005  0.72240185     0.08000
C431        C  0.64196357  0.30237544  0.68582621    -0.11200
C432        C  0.66481775  0.27433314  0.67307279    -0.10400
C433        C  0.66673182  0.24129159  0.69029603    -0.01300
C434        C  0.64478689  0.23648849  0.72006815    -0.11500
C435        C  0.62184476  0.26448648  0.73277133    -0.09900
H436        H  0.64129012  0.32769740  0.67221574     0.08000
H437        H  0.68185873  0.27901792  0.65039669     0.11700
H438        H  0.64559771  0.21118951  0.73370499     0.11400
H439        H  0.60597853  0.26037272  0.75634276     0.08000
C440        C  0.79638274  0.87086787  0.17411596    -0.11100
C441        C  0.81574846  0.84901097  0.14923782     0.06000
C442        C  0.80906758  0.81139844  0.14745460    -0.09900
C443        C  0.78264387  0.79632250  0.16898786    -0.11600
C444        C  0.76151490  0.81842836  0.19234704    -0.01300
C445        C  0.76950548  0.85587664  0.19528964    -0.10400
C446        C  0.84048502  0.86570751  0.12338086     0.06000
H447        H  0.82323296  0.79367250  0.12853172     0.07900
H448        H  0.77801511  0.76721725  0.16681127     0.11400
H449        H  0.75570212  0.87395866  0.21395815     0.11700
H450        H  0.80175781  0.89978312  0.17706517     0.08000
C451        C  0.83122289  0.89944745  0.10968160    -0.11200
C452        C  0.85190715  0.91379035  0.08282322    -0.10400
C453        C  0.88223320  0.89468322  0.06874566    -0.01300
C454        C  0.89249105  0.86158625  0.08305334    -0.11500
C455        C  0.87181559  0.84722537  0.11022867    -0.09900
H456        H  0.80701138  0.91420027  0.11860232     0.08000
H457        H  0.84344681  0.93949749  0.07241239     0.11700
H458        H  0.91590236  0.84644486  0.07273088     0.11400
H459        H  0.88007783  0.82145335  0.12058137     0.08000
C460        C  0.60621329  0.68564142  0.20049990    -0.11100
C461        C  0.61789274  0.66555186  0.17029937     0.06000
C462        C  0.64908631  0.67752463  0.15237349    -0.09900
C463        C  0.66909986  0.70750690  0.16514438    -0.11600
C464        C  0.65822845  0.72692856  0.19598113    -0.01300
C465        C  0.62608387  0.71598750  0.21310478    -0.10400
C466        C  0.59817442  0.63210643  0.15738623     0.06000
H467        H  0.65838294  0.66351452  0.12844780     0.07900
H468        H  0.69385224  0.71452171  0.15130820     0.11400
H469        H  0.61632953  0.73042332  0.23654731     0.11700
H470        H  0.58232469  0.67737041  0.21504662     0.08000
C471        C  0.61771846  0.60283348  0.14133882    -0.11200
C472        C  0.59937322  0.57293398  0.12599820    -0.10400
C473        C  0.56093868  0.57120463  0.12664395    -0.01300
C474        C  0.54144612  0.59931325  0.14471878    -0.11500
C475        C  0.55979982  0.62946745  0.15975750    -0.09900
H476        H  0.64735393  0.60324577  0.14002032     0.08000
H477        H  0.61534433  0.55193291  0.11238322     0.11700
H478        H  0.51185701  0.59851182  0.14649167     0.11400
H479        H  0.54374143  0.65129581  0.17198676     0.08000
C480        C  0.63950195  0.87074919  0.32478041    -0.11100
C481        C  0.60336189  0.85772657  0.32603268     0.06000
C482        C  0.59316693  0.82831694  0.30343954    -0.09900
C483        C  0.61873105  0.81177512  0.28065385    -0.11600
C484        C  0.65486598  0.82445518  0.27978277    -0.01300
C485        C  0.66499706  0.85435184  0.30171106    -0.10400
C486        C  0.57701209  0.87228787  0.35272485     0.06000
H487        H  0.56568821  0.81729843  0.30419266     0.07900
H488        H  0.61019378  0.78912613  0.26365196     0.11400
H489        H  0.69285484  0.86446237  0.30159538     0.11700
H490        H  0.64810533  0.89340314  0.34181746     0.08000
C491        C  0.58821005  0.87902080  0.38762402    -0.11200
C492        C  0.56219372  0.88507202  0.41415160    -0.10400
C493        C  0.52452405  0.88263482  0.40653569    -0.01300
C494        C  0.51390635  0.88249362  0.37102459    -0.11500
C495        C  0.53979324  0.87639012  0.34437362    -0.09900
H496        H  0.61686924  0.87758411  0.39479888     0.08000
H497        H  0.57180998  0.89063737  0.44062055     0.11700
H498        H  0.48528941  0.88471868  0.36394469     0.11400
H499        H  0.53056749  0.87337896  0.31739248     0.08000
C500        C  0.85046482  0.54250396  0.56541787    -0.11100
C501        C  0.84125532  0.57899396  0.55974961     0.06000
C502        C  0.85231926  0.59358387  0.52771399    -0.09900
C503        C  0.86715685  0.57099275  0.50067565    -0.11600
C504        C  0.86859349  0.53298172  0.50393037    -0.01300
C505        C  0.86504125  0.52014521  0.53810671    -0.10400
C506        C  0.81998996  0.60127724  0.58675340    -0.06400
H507        H  0.84762908  0.62195383  0.52255803     0.07900
H508        H  0.87443468  0.58292769  0.47608666     0.11400
H509        H  0.87293649  0.49271028  0.54376843     0.11700
H510        H  0.84576178  0.53099081  0.59077584     0.08000
C511        C  0.79269029  0.58526946  0.60753470    -0.11200
C512        C  0.77270154  0.60614601  0.63279143    -0.10400
C513        C  0.77976257  0.64342408  0.63805524    -0.01300
C514        C  0.80621455  0.65958836  0.61666916    -0.11500
C515        C  0.82602152  0.63890390  0.59149000    -0.09900
H516        H  0.78657941  0.55654939  0.60415292     0.08000
H517        H  0.75248269  0.59300231  0.64881063     0.11700
H518        H  0.81193019  0.68844256  0.61971488     0.11400
H519        H  0.84669705  0.65241335  0.57634295     0.08000
C520        C  0.77749476  0.36346715  0.55536644    -0.11100
C521        C  0.79096492  0.32800160  0.54857475     0.06000
C522        C  0.81504994  0.32161099  0.52014600    -0.09900
C523        C  0.82589283  0.35020100  0.49936252    -0.11600
C524        C  0.81297625  0.38576644  0.50663263    -0.01300
C525        C  0.78852026  0.39207717  0.53470506    -0.10400
C526        C  0.78038274  0.29798453  0.57147308     0.06000
H527        H  0.82627035  0.29470098  0.51454875     0.07900
H528        H  0.84532414  0.34475119  0.47827168     0.11400
H529        H  0.77792969  0.41916039  0.54062234     0.11700
H530        H  0.75836375  0.36909341  0.57668218     0.08000
C531        C  0.77812221  0.30405635  0.60813489    -0.11200
C532        C  0.76748251  0.27608748  0.62972383    -0.10400
C533        C  0.75890738  0.24169353  0.61500748    -0.01300
C534        C  0.76138987  0.23526745  0.57859953    -0.11500
C535        C  0.77225772  0.26315422  0.55695034    -0.09900
H536        H  0.78465808  0.33043516  0.62012796     0.08000
H537        H  0.76517517  0.28144675  0.65782815     0.11700
H538        H  0.75462415  0.20879471  0.56695491     0.11400
H539        H  0.77344462  0.25773651  0.52881020     0.08000
C540        C  0.78130766  0.60468077  0.32657524    -0.11100
C541        C  0.76636816  0.63525431  0.34462952     0.06000
C542        C  0.76258912  0.63485121  0.38131879    -0.09900
C543        C  0.77532607  0.60510547  0.39970902    -0.11600
C544        C  0.79220709  0.57527454  0.38173824    -0.01300
C545        C  0.79428598  0.57525553  0.34483470    -0.10400
C546        C  0.75666583  0.66787165  0.32496633     0.06000
H547        H  0.75107778  0.65805580  0.39589916     0.07900
H548        H  0.77263122  0.60595018  0.42801285     0.11400
H549        H  0.80737219  0.55327091  0.32985241     0.11700
H550        H  0.78379762  0.60385473  0.29819964     0.08000
C551        C  0.77967950  0.67880262  0.29777582    -0.11200
C552        C  0.76992348  0.70774281  0.27725358    -0.10400
C553        C  0.73714767  0.72705191  0.28375451    -0.01300
C554        C  0.71481030  0.71714762  0.31197232    -0.11500
C555        C  0.72444024  0.68772663  0.33235669    -0.09900
H556        H  0.80514033  0.66456939  0.29198067     0.08000
H557        H  0.78767608  0.71400077  0.25553254     0.11700
H558        H  0.68981481  0.73189411  0.31829749     0.11400
H559        H  0.70626000  0.67995673  0.35328005     0.08000
C560        C  0.17689087  0.17375539  0.81684875    -0.11100
C561        C  0.14754838  0.15841361  0.79777201     0.06000
C562        C  0.14033425  0.16995275  0.76387057    -0.09900
C563        C  0.16201687  0.19665688  0.74929663    -0.11600
C564        C  0.19045738  0.21359886  0.76885322    -0.01300
C565        C  0.19824378  0.20097191  0.80251800    -0.10400
C566        C  0.12409249  0.13079627  0.81342132     0.06000
H567        H  0.11831375  0.15778298  0.74843701     0.07900
H568        H  0.15669553  0.20372187  0.72244220     0.11400
H569        H  0.22131282  0.21124723  0.81760441     0.11700
H570        H  0.18312350  0.16482132  0.84296563     0.08000
C571        C  0.13962700  0.10000304  0.82823146    -0.11200
C572        C  0.11735966  0.07491099  0.84466795    -0.10400
C573        C  0.07933915  0.08068726  0.84706841    -0.01300
C574        C  0.06378167  0.11104816  0.83146098    -0.11500
C575        C  0.08597431  0.13578179  0.81453820    -0.09900
H576        H  0.16899499  0.09558910  0.82732517     0.08000
H577        H  0.13003893  0.05174220  0.85655034     0.11700
H578        H  0.03453371  0.11607004  0.83297647     0.11400
H579        H  0.07354307  0.15946773  0.80332736     0.08000
C580        C  0.33105658  0.33334474  0.81848732    -0.11100
C581        C  0.33612448  0.36669768  0.80234764     0.06000
C582        C  0.31333114  0.37550507  0.77417560    -0.09900
C583        C  0.28786919  0.35053769  0.76076272    -0.11600
C584        C  0.28442830  0.31632217  0.77529327    -0.01300
C585        C  0.30525734  0.30829138  0.80505514    -0.10400
C586        C  0.36746602  0.39067793  0.81173188     0.06000
H587        H  0.31604754  0.40138774  0.76176184     0.07900
H588        H  0.27123423  0.35782699  0.73864392     0.11400
H589        H  0.30293304  0.28200006  0.81674003     0.11700
H590        H  0.34835667  0.32586990  0.84015599     0.08000
C591        C  0.37684454  0.39987168  0.84678539    -0.11200
C592        C  0.40665004  0.42309445  0.85443391    -0.10400
C593        C  0.42785760  0.43695232  0.82709265    -0.01300
C594        C  0.41775118  0.42747771  0.79216095    -0.11500
C595        C  0.38849261  0.40457776  0.78463701    -0.09900
H596        H  0.36071725  0.38967250  0.86816787     0.08000
H597        H  0.41207896  0.43032752  0.88146382     0.11700
H598        H  0.43298369  0.43783554  0.77024136     0.11400
H599        H  0.38246687  0.39752940  0.75736030     0.08000
C600        C  0.81863134  0.10519905  0.08336882    -0.11100
C601        C  0.83506531  0.13694075  0.09776112     0.06000
C602        C  0.87250548  0.14295411  0.09167259    -0.09900
C603        C  0.89285856  0.11837861  0.07076815    -0.11600
C604        C  0.87626602  0.08720917  0.05557635    -0.01300
C605        C  0.83914771  0.08038839  0.06256422    -0.10400
C606        C  0.81338311  0.16447602  0.11825849     0.06000
H607        H  0.88582971  0.16731870  0.10216653     0.07900
H608        H  0.92147272  0.12419716  0.06588682     0.11400
H609        H  0.82574389  0.05648344  0.05116660     0.11700
H610        H  0.78992046  0.09970471  0.08805324     0.08000
C611        C  0.77841818  0.17506046  0.10707456    -0.11200
C612        C  0.75934927  0.20299516  0.12525141    -0.10400
C613        C  0.77509413  0.22149341  0.15459192    -0.01300
C614        C  0.80922550  0.20907297  0.16681318    -0.11500
C615        C  0.82823819  0.18132984  0.14863480    -0.09900
H616        H  0.76616035  0.16231164  0.08383240     0.08000
H617        H  0.73234047  0.21038493  0.11613444     0.11700
H618        H  0.82132880  0.21982563  0.19086520     0.11400
H619        H  0.85455970  0.17276392  0.15859040     0.08000
C620        C  0.62720352  0.34813429  0.13370875    -0.11100
C621        C  0.64103751  0.36776799  0.10549555     0.06000
C622        C  0.67917688  0.36832481  0.10015749    -0.09900
C623        C  0.70267401  0.34868470  0.12164849    -0.11600
C624        C  0.68871942  0.32880650  0.14953387    -0.01300
C625        C  0.65080456  0.32913325  0.15565232    -0.10400
C626        C  0.61552691  0.38803037  0.08246237     0.06000
H627        H  0.69074819  0.38308165  0.07873023     0.07900
H628        H  0.73181940  0.34849426  0.11615840     0.11400
H629        H  0.63931700  0.31349704  0.17653405     0.11700
H630        H  0.59800999  0.34754358  0.13885612     0.08000
C631        C  0.58230941  0.37229441  0.07116053    -0.11200
C632        C  0.55540547  0.39335299  0.05523880    -0.10400
C633        C  0.56003871  0.43113920  0.05230139    -0.01300
C634        C  0.59578508  0.44490156  0.05723931    -0.11500
C635        C  0.62302688  0.42386767  0.07294493    -0.09900
H636        H  0.57661715  0.34396830  0.07575802     0.08000
H637        H  0.53020087  0.38028069  0.04697236     0.11700
H638        H  0.60189956  0.47285258  0.05157969     0.11400
H639        H  0.64900851  0.43645118  0.07970626     0.08000
C640        C  0.82566161  0.33365606  0.28753069    -0.11100
C641        C  0.81709612  0.37066966  0.29341919     0.06000
C642        C  0.78705188  0.38496877  0.27489116    -0.09900
C643        C  0.76635964  0.36276258  0.25124812    -0.11600
C644        C  0.77535316  0.32582526  0.24548958    -0.01300
C645        C  0.80499144  0.31165128  0.26438588    -0.10400
C646        C  0.83823748  0.39340728  0.32011503     0.06000
H647        H  0.77917670  0.41322598  0.27901864     0.07900
H648        H  0.74390251  0.37460568  0.23700912     0.11400
H649        H  0.81251474  0.28319776  0.26117781     0.11700
H650        H  0.84869606  0.32146825  0.30058527     0.08000
C651        C  0.85226289  0.37800366  0.35069927    -0.11200
C652        C  0.86754989  0.39998274  0.37779036    -0.10400
C653        C  0.86680730  0.43813563  0.37637695    -0.01300
C654        C  0.85982746  0.45250469  0.34320343    -0.11500
C655        C  0.84452560  0.43072870  0.31581369    -0.09900
H656        H  0.84983445  0.34915321  0.35477278     0.08000
H657        H  0.87808526  0.38707203  0.40072461     0.11700
H658        H  0.86458804  0.48097947  0.33883417     0.11400
H659        H  0.83697436  0.44327510  0.29159173     0.08000
C660        C  0.58534585  0.07784089  0.52052965    -0.11100
C661        C  0.59598192  0.11346947  0.53055358     0.06000
C662        C  0.57552427  0.14281472  0.51879270    -0.09900
C663        C  0.54518167  0.13692154  0.49761832    -0.11600
C664        C  0.53373060  0.10147790  0.48755324    -0.01300
C665        C  0.55479002  0.07188657  0.49864724    -0.10400
C666        C  0.62753483  0.12118695  0.55393454     0.06000
H667        H  0.58262872  0.17059621  0.52644875     0.07900
H668        H  0.53034859  0.16050428  0.48892342     0.11400
H669        H  0.54903395  0.04443534  0.48981765     0.11700
H670        H  0.60113263  0.05476041  0.52893549     0.08000
C671        C  0.63175031  0.10293333  0.58539440    -0.11200
C672        C  0.65671733  0.11582486  0.61078577    -0.10400
C673        C  0.67755051  0.14716581  0.60498096    -0.01300
C674        C  0.67509641  0.16370936  0.57255896    -0.11500
C675        C  0.65060433  0.15065652  0.54716393    -0.09900
H676        H  0.61417070  0.08026127  0.59127503     0.08000
H677        H  0.65816409  0.10259440  0.63566870     0.11700
H678        H  0.69145804  0.18733346  0.56708420     0.11400
H679        H  0.64846094  0.16470122  0.52275396     0.08000
C680        C  0.30856370  0.18344334  0.63671844    -0.11100
C681        C  0.33865699  0.20443105  0.62672205     0.06000
C682        C  0.34669455  0.23668655  0.64616267    -0.09900
C683        C  0.32428370  0.24823873  0.67430648    -0.11600
C684        C  0.29319172  0.22798304  0.68324266    -0.01300
C685        C  0.28595120  0.19519878  0.66435019    -0.10400
C686        C  0.36083392  0.19260076  0.59568016     0.06000
H687        H  0.36974094  0.25343141  0.63912158     0.07900
H688        H  0.33127835  0.27315740  0.68877544     0.11400
H689        H  0.26207625  0.17901603  0.66995070     0.11700
H690        H  0.30214597  0.15797420  0.62286550     0.08000
C691        C  0.39918730  0.19607978  0.59562459    -0.11200
C692        C  0.41981749  0.18236477  0.56704969    -0.10400
C693        C  0.40245886  0.16489451  0.53807393    -0.01300
C694        C  0.36405156  0.16244732  0.53786160    -0.11500
C695        C  0.34352681  0.17638072  0.56612877    -0.09900
H696        H  0.41331571  0.20843375  0.61803330     0.08000
H697        H  0.44932183  0.18523193  0.56774620     0.11700
H698        H  0.34968573  0.14893102  0.51626396     0.11400
H699        H  0.31396441  0.17406535  0.56495985     0.08000
C700        C  0.63997590  0.25470558  0.29541073    -0.11100
C701        C  0.61961638  0.22313850  0.28660051     0.06000
C702        C  0.62512104  0.20597481  0.25340288    -0.09900
C703        C  0.65119960  0.21914257  0.23014317    -0.11600
C704        C  0.67245474  0.25001397  0.23928076    -0.01300
C705        C  0.66589937  0.26820120  0.27184354    -0.10400
C706        C  0.59404834  0.20680183  0.31226408     0.06000
H707        H  0.61009435  0.18153240  0.24585528     0.07900
H708        H  0.65506057  0.20475424  0.20504347     0.11400
H709        H  0.68185694  0.29193346  0.27969889     0.11700
H710        H  0.63611571  0.26868942  0.32071357     0.08000
C711        C  0.60497426  0.20183827  0.34711745    -0.11200
C712        C  0.58242088  0.18329432  0.37031137    -0.10400
C713        C  0.54817583  0.16914343  0.35932251    -0.01300
C714        C  0.53684044  0.17535740  0.32467530    -0.11500
C715        C  0.55947813  0.19379551  0.30150564    -0.09900
H716        H  0.63154658  0.21132800  0.35616031     0.08000
H717        H  0.59216641  0.17997165  0.39677781     0.11700
H718        H  0.51092042  0.16508856  0.31487884     0.11400
H719        H  0.55013432  0.19746715  0.27488770     0.08000
C720        C  0.08724660  0.82153398  0.80381886    -0.11100
C721        C  0.11659928  0.83833885  0.78669429     0.06000
C722        C  0.12531043  0.87452690  0.79642036    -0.09900
C723        C  0.10570075  0.89327589  0.82299879    -0.11600
C724        C  0.07685477  0.87634551  0.84052463    -0.01300
C725        C  0.06753961  0.84037589  0.83045934    -0.10400
C726        C  0.13809057  0.81833988  0.75878196     0.06000
H727        H  0.14721776  0.88848632  0.78329140     0.07900
H728        H  0.11328413  0.92109575  0.82993510     0.11400
H729        H  0.04545433  0.82661876  0.84353941     0.11700
H730        H  0.07999253  0.79357863  0.79709944     0.08000
C731        C  0.17639321  0.82196172  0.75671465    -0.11200
C732        C  0.19647185  0.80284706  0.73054989    -0.10400
C733        C  0.17897847  0.77922265  0.70586875    -0.01300
C734        C  0.14032536  0.77672562  0.70753642    -0.11500
C735        C  0.12036002  0.79577303  0.73368244    -0.09900
H736        H  0.19097479  0.83909723  0.77575136     0.08000
H737        H  0.22598338  0.80594002  0.72998727     0.11700
H738        H  0.12456261  0.76058424  0.68891255     0.11400
H739        H  0.09079231  0.79318433  0.73394438     0.08000
C740        C  0.33209194  0.68013040  0.73138779    -0.11100
C741        C  0.34057571  0.64643581  0.71452618     0.06000
C742        C  0.32244991  0.63688014  0.68284601    -0.09900
C743        C  0.29561919  0.65977465  0.66913354    -0.11600
C744        C  0.28609847  0.69269552  0.68684550    -0.01300
C745        C  0.30525866  0.70291404  0.71774951    -0.10400
C746        C  0.36660925  0.62064158  0.73101451     0.06000
H747        H  0.32868317  0.61140989  0.66884007     0.07900
H748        H  0.28140873  0.65100259  0.64535895     0.11400
H749        H  0.29922416  0.72844082  0.73173738     0.11700
H750        H  0.34525465  0.68838483  0.75587924     0.08000
C751        C  0.39821878  0.63330581  0.74876279    -0.11200
C752        C  0.42121460  0.60919815  0.76612077    -0.10400
C753        C  0.41316903  0.57177965  0.76632152    -0.01300
C754        C  0.38197626  0.55907100  0.74792478    -0.11500
C755        C  0.35905848  0.58312749  0.73057002    -0.09900
H756        H  0.40513590  0.66194647  0.74936570     0.08000
H757        H  0.44482165  0.62005625  0.78008403     0.11700
H758        H  0.37513342  0.53043994  0.74690160     0.11400
H759        H  0.33480226  0.57238446  0.71755801     0.08000
C760        C  0.33385100  0.78978286  0.58554118    -0.11100
C761        C  0.32317144  0.82172844  0.56893392     0.06000
C762        C  0.28598127  0.83187136  0.57019462    -0.09900
C763        C  0.26056237  0.81164791  0.58909273    -0.11600
C764        C  0.27153560  0.78037376  0.60659071    -0.01300
C765        C  0.30831255  0.76921934  0.60389640    -0.10400
C766        C  0.35098901  0.84404373  0.55051045     0.06000
H767        H  0.27676700  0.85613813  0.55756231     0.07900
H768        H  0.23233225  0.82078167  0.59048748     0.11400
H769        H  0.31769279  0.74544137  0.61724747     0.11700
H770        H  0.36214222  0.78079181  0.58450009     0.08000
C771        C  0.38550478  0.85083932  0.56574416    -0.11200
C772        C  0.41366447  0.86661727  0.54642528    -0.10400
C773        C  0.40870424  0.87392309  0.51072958    -0.01300
C774        C  0.37245719  0.87333580  0.49785594    -0.11500
C775        C  0.34405618  0.85775361  0.51717186    -0.09900
H776        H  0.39100454  0.84307140  0.59237757     0.08000
H777        H  0.43949975  0.87191203  0.55933475     0.11700
H778        H  0.36684136  0.88147002  0.47136019     0.11400
H779        H  0.31738789  0.85431518  0.50506312     0.08000
C780        C  0.16171326  0.32561036  0.63371642    -0.11100
C781        C  0.18387542  0.35406830  0.62233217     0.06000
C782        C  0.21699861  0.36131171  0.63995017    -0.09900
C783        C  0.22774612  0.34056062  0.66811845    -0.11600
C784        C  0.20593031  0.31162116  0.67925296    -0.01300
C785        C  0.17270708  0.30450032  0.66154628    -0.10400
C786        C  0.17246800  0.37599156  0.59219725     0.06000
H787        H  0.23503353  0.38270313  0.63165483     0.07900
H788        H  0.25328938  0.34755663  0.68082725     0.11400
H789        H  0.15530362  0.28212042  0.66848049     0.11700
H790        H  0.13570547  0.31959158  0.62116333     0.08000
C791        C  0.15363538  0.35965447  0.56354610    -0.11200
C792        C  0.14182310  0.38039877  0.53577371    -0.10400
C793        C  0.14897411  0.41796625  0.53567022    -0.01300
C794        C  0.16854077  0.43415300  0.56395333    -0.11500
C795        C  0.17995612  0.41348053  0.59194766    -0.09900
H796        H  0.14800700  0.33073022  0.56248601     0.08000
H797        H  0.12650824  0.36699058  0.51473592     0.11700
H798        H  0.17511594  0.46283673  0.56459614     0.11400
H799        H  0.19407087  0.42708732  0.61369626     0.08000
C800        C  0.18069739  0.61209404  0.32385616    -0.11100
C801        C  0.19514062  0.59303462  0.29423417     0.06000
C802        C  0.19932364  0.55513013  0.29513152    -0.09900
C803        C  0.18759734  0.53652462  0.32439558    -0.11600
C804        C  0.17102330  0.55537128  0.35321321    -0.01300
C805        C  0.16858886  0.59351461  0.35288634    -0.10400
C806        C  0.20474297  0.61286871  0.26236714     0.06000
H807        H  0.21049624  0.53970169  0.27277370     0.07900
H808        H  0.19076572  0.50725503  0.32399148     0.11400
H809        H  0.15594534  0.60908631  0.37434015     0.11700
H810        H  0.17808677  0.64146506  0.32434745     0.08000
C811        C  0.18246724  0.64170648  0.25196852    -0.11200
C812        C  0.19287077  0.66293566  0.22419489    -0.10400
C813        C  0.22559483  0.65553403  0.20570859    -0.01300
C814        C  0.24676597  0.62526112  0.21465555    -0.11500
C815        C  0.23648751  0.60415215  0.24281057    -0.09900
H816        H  0.15731502  0.64848268  0.26591178     0.08000
H817        H  0.17603546  0.68625679  0.21853727     0.11700
H818        H  0.27175183  0.61836644  0.20053507     0.11400
H819        H  0.25411857  0.58194071  0.25009050     0.08000
C820        C  0.17852277  0.65159159  0.55082165    -0.11100
C821        C  0.14765405  0.63224246  0.56255206     0.06000
C822        C  0.13824263  0.63595609  0.59832930    -0.09900
C823        C  0.15811312  0.65898829  0.62126722    -0.11600
C824        C  0.18764949  0.67977771  0.60919692    -0.01300
C825        C  0.19827190  0.67509525  0.57388119    -0.10400
C826        C  0.12599464  0.60774914  0.53785198     0.06000
H827        H  0.11480621  0.62189807  0.60867416     0.07900
H828        H  0.14962934  0.66120665  0.64853622     0.11400
H829        H  0.22088420  0.69062535  0.56377966     0.11700
H830        H  0.18737786  0.64874346  0.52370888     0.08000
C831        C  0.12197574  0.61571734  0.50219971    -0.11200
C832        C  0.10680131  0.59001721  0.47820365    -0.10400
C833        C  0.09719477  0.55505031  0.48882908    -0.01300
C834        C  0.09347302  0.55068837  0.52521939    -0.11500
C835        C  0.10911500  0.57586939  0.54939338    -0.09900
H836        H  0.13131417  0.64145594  0.49263150     0.08000
H837        H  0.10355274  0.59728081  0.45121100     0.11700
H838        H  0.08132147  0.52623547  0.53497963     0.11400
H839        H  0.10967503  0.56910468  0.57677843     0.08000
C840        C  0.14972826  0.19090485  0.12562698    -0.11100
C841        C  0.14356166  0.15344105  0.12849835     0.06000
C842        C  0.15735148  0.13608876  0.15786152    -0.09900
C843        C  0.17766841  0.15534459  0.18338953    -0.11600
C844        C  0.18544628  0.19262112  0.18004868    -0.01300
C845        C  0.17016151  0.21028315  0.15122599    -0.10400
C846        C  0.12249998  0.13219186  0.10142435     0.06000
H847        H  0.15191038  0.10750081  0.16139800     0.07900
H848        H  0.18627912  0.14057698  0.20583365     0.11400
H849        H  0.17456868  0.23912477  0.14821054     0.11700
H850        H  0.13922102  0.20507971  0.10334132     0.08000
C851        C  0.08949346  0.14564960  0.08796575    -0.11200
C852        C  0.06880387  0.12446848  0.06392622    -0.10400
C853        C  0.08093261  0.08959501  0.05267520    -0.01300
C854        C  0.11421671  0.07644020  0.06572138    -0.11500
C855        C  0.13473189  0.09746873  0.08983715    -0.09900
H856        H  0.07926998  0.17218742  0.09666483     0.08000
H857        H  0.04329372  0.13533829  0.05423368     0.11700
H858        H  0.12440078  0.04977373  0.05739163     0.11400
H859        H  0.16028361  0.08657708  0.09943347     0.08000
C860        C  0.40319250  0.33449479  0.13366148    -0.11100
C861        C  0.37259490  0.34888959  0.15222565     0.06000
C862        C  0.36644316  0.38666964  0.15194231    -0.09900
C863        C  0.38947671  0.40917762  0.13298620    -0.11600
C864        C  0.41929418  0.39463916  0.11349424    -0.01300
C865        C  0.42617548  0.35704617  0.11452301    -0.10400
C866        C  0.34596365  0.32454981  0.16993769     0.06000
H867        H  0.34308638  0.39887004  0.16547708     0.07900
H868        H  0.38368737  0.43806712  0.13349676     0.11400
H869        H  0.44880609  0.34489931  0.09982847     0.11700
H870        H  0.40932524  0.30567053  0.13367103     0.08000
C871        C  0.33780192  0.28996228  0.15496993    -0.11200
C872        C  0.31070846  0.26827634  0.16944261    -0.10400
C873        C  0.29050809  0.28052412  0.19916119    -0.01300
C874        C  0.29964458  0.31434141  0.21520435    -0.11500
C875        C  0.32697569  0.33614733  0.20073107    -0.09900
H876        H  0.35139676  0.27999169  0.13120083     0.08000
H877        H  0.30526325  0.24191989  0.15689037     0.11700
H878        H  0.28495836  0.32452296  0.23822069     0.11400
H879        H  0.33294485  0.36227624  0.21351030     0.08000
C880        C  0.30594036  0.19435643  0.33924569    -0.11100
C881        C  0.32473119  0.16178509  0.32976318     0.06000
C882        C  0.31889995  0.14610018  0.29603027    -0.09900
C883        C  0.29551303  0.16272554  0.27229905    -0.11600
C884        C  0.27710790  0.19548435  0.28160908    -0.01300
C885        C  0.28259250  0.21108634  0.31539443    -0.10400
C886        C  0.35250156  0.14599240  0.35379298     0.06000
H887        H  0.33339897  0.12158321  0.28747314     0.07900
H888        H  0.29257502  0.15025323  0.24623308     0.11400
H889        H  0.26847977  0.23596439  0.32354699     0.11700
H890        H  0.30935026  0.20702750  0.36517940     0.08000
C891        C  0.37558569  0.16938618  0.37334480    -0.11200
C892        C  0.40321196  0.15558375  0.39419253    -0.10400
C893        C  0.40886614  0.11775542  0.39692738    -0.01300
C894        C  0.38576594  0.09406248  0.37740213    -0.11500
C895        C  0.35788564  0.10805102  0.35604077    -0.09900
H896        H  0.37317287  0.19863529  0.37170818     0.08000
H897        H  0.42080160  0.17487984  0.40822203     0.11700
H898        H  0.38949808  0.06502089  0.37770080     0.11400
H899        H  0.34061640  0.08916524  0.34117943     0.08000
C900        C  0.16080917  0.38913515  0.37183112    -0.11100
C901        C  0.13814690  0.37237647  0.34647654     0.06000
C902        C  0.10083440  0.38286936  0.34562109    -0.09900
C903        C  0.08700593  0.41031680  0.36920321    -0.11600
C904        C  0.11025312  0.42742640  0.39423598    -0.01300
C905        C  0.14734047  0.41624853  0.39472732    -0.10400
C906        C  0.15451248  0.34468554  0.32116819     0.06000
H907        H  0.08267813  0.37067295  0.32605444     0.07900
H908        H  0.05884936  0.41882132  0.36674908     0.11400
H909        H  0.16663426  0.42941823  0.41265869     0.11700
H910        H  0.18940053  0.38152191  0.37389493     0.08000
C911        C  0.19016642  0.34965448  0.30780064    -0.11200
C912        C  0.20714589  0.32278293  0.28631725    -0.10400
C913        C  0.18886993  0.29030808  0.27708370    -0.01300
C914        C  0.15303345  0.28540660  0.29013436    -0.11500
C915        C  0.13606217  0.31226519  0.31184373    -0.09900
H916        H  0.20505625  0.37454758  0.31389264     0.08000
H917        H  0.23434852  0.32785858  0.27643578     0.11700
H918        H  0.13821375  0.26048399  0.28406078     0.11400
H919        H  0.10889951  0.30725579  0.32205899     0.08000
loop_ 
_geom_bond_atom_site_label_1 
_geom_bond_atom_site_label_2 
_geom_bond_distance 
_geom_bond_site_symmetry_2 
_ccdc_geom_bond_type 
C1            C2   1.541       .  S
C1            C7   1.534       .  S
C1            C5   1.531       .  S
C1          C844   1.532       .  S
C2            H9   1.080       .  S
C2            C3   1.366       .  D
C3            C4   1.549       .  S
C3          C884   1.495       .  S
C4            C8   1.550       .  S
C4            C6   1.556       .  S
C4           H10   1.109       .  S
C5           H11   1.086       .  S
C5            C6   1.368       .  D
C6          C913   1.498       .  S
C7           H12   1.086       .  S
C7            C8   1.368       .  D
C8          C873   1.497       .  S
C13          C15   1.527       .  S
C13          C17   1.533       .  S
C13          C16   1.552       .  S
C13         C904   1.537       .  S
C14          C18   1.550       .  S
C14          C20   1.547       .  S
C14          C19   1.554       .  S
C14         C833   1.547       .  S
C15          C23   1.370       .  A
C15          C18   1.387       .  A
C16          C27   1.386       .  A
C16          C19   1.413       .  A
C17          C31   1.375       .  A
C17          C20   1.386       .  A
C18          C21   1.388       .  A
C19          C25   1.380       .  A
C20          C28   1.383       .  A
C21          N22   1.361       .  A
C21          H34   1.077       .  S
N22          C23   1.353       .  A
N22         C804   1.443       .  S
C23          H24   1.082       .  S
C25          N26   1.363       .  A
C25          H35   1.081       .  S
N26          C27   1.364       .  A
N26         N108   1.419   1_455  S
C27          H33   1.079       .  S
C28          N29   1.358       .  A
C28          H30   1.078       .  S
N29          C31   1.356       .  A
N29         C793   1.443       .  S
C31          H32   1.081       .  S
C36          C37   1.536       .  S
C36          C42   1.538       .  S
C36          C40   1.536       .  S
C36         C733   1.537       .  S
C37          H44   1.086       .  S
C37          C38   1.370       .  D
C38          C39   1.551       .  S
C38         C764   1.495       .  S
C39          C43   1.548       .  S
C39          C41   1.551       .  S
C39          H45   1.110       .  S
C40          H46   1.078       .  S
C40          C41   1.363       .  D
C41         C824   1.497       .  S
C42          H47   1.086       .  S
C42          C43   1.370       .  D
C43         C744   1.495       .  S
C48          C50   1.533       .  S
C48          C52   1.541       .  S
C48          C51   1.570       .  S
C48         C893   1.536       .  S
C49          C53   1.531       .  S
C49          C55   1.535       .  S
C49          C54   1.550       .  S
C49         C664   1.525       .  S
C50          C58   1.373       .  A
C50          C53   1.380       .  A
C51          C62   1.396       .  A
C51          C54   1.418       .  A
C52          C66   1.384       .  A
C52          C55   1.380       .  A
C53          C56   1.378       .  A
C54          C60   1.381       .  A
C55          C63   1.381       .  A
C56          N57   1.359       .  A
C56          H69   1.082       .  S
N57          C58   1.359       .  A
N57         C693   1.440       .  S
C58          H59   1.081       .  S
C60          N61   1.352       .  A
C60          H70   1.077       .  S
N61          C62   1.362       .  A
N61         N155   1.412   1_545  S
C62          H68   1.079       .  S
C63          N64   1.362       .  A
C63          H65   1.081       .  S
N64          C66   1.365       .  A
N64         C713   1.456       .  S
C66          H67   1.081       .  S
C71          C72   1.532       .  S
C71          C77   1.534       .  S
C71          C75   1.530       .  S
C71         C613   1.526       .  S
C72          H79   1.083       .  S
C72          C73   1.364       .  D
C73          C74   1.557       .  S
C73         C644   1.501       .  S
C74          C78   1.556       .  S
C74          C76   1.552       .  S
C74          H80   1.110       .  S
C75          H81   1.086       .  S
C75          C76   1.367       .  D
C76         C704   1.496       .  S
C77          H82   1.086       .  S
C77          C78   1.367       .  D
C78         C624   1.489       .  S
C83          C84   1.543       .  S
C83          C89   1.539       .  S
C83          C87   1.530       .  S
C83         C564   1.520       .  S
C84          H91   1.084       .  S
C84          C85   1.370       .  D
C85          C86   1.539       .  S
C85         C784   1.495       .  S
C86          C90   1.540       .  S
C86          C88   1.537       .  S
C86          H92   1.104       .  S
C87          H93   1.086       .  S
C87          C88   1.364       .  D
C88         C684   1.486       .  S
C89          H94   1.084       .  S
C89          C90   1.364       .  D
C90         C584   1.477       .  S
C95          C97   1.543       .  S
C95          C99   1.551       .  S
C95          C98   1.541       .  S
C95         C504   1.547       .  S
C96         C100   1.546       .  S
C96         C102   1.548       .  S
C96         C101   1.546       .  S
C96         C653   1.550       .  S
C97         C105   1.382       .  A
C97         C100   1.393       .  A
C98         C109   1.380       .  A
C98         C101   1.402       .  A
C99         C113   1.386       .  A
C99         C102   1.400       .  A
C100        C103   1.381       .  A
C101        C107   1.385       .  A
C102        C110   1.383       .  A
C103        N104   1.356       .  A
C103        H116   1.078       .  S
N104        C105   1.356       .  A
N104        C544   1.445       .  S
C105        H106   1.078       .  S
C107        N108   1.365       .  A
C107        H117   1.082       .  S
N108        C109   1.362       .  A
C109        H115   1.081       .  S
C110        N111   1.352       .  A
C110        H112   1.079       .  S
N111        C113   1.354       .  A
N111        C524   1.439       .  S
C113        H114   1.078       .  S
C118        C119   1.539       .  S
C118        C124   1.541       .  S
C118        C122   1.530       .  S
C118        C444   1.523       .  S
C119        H126   1.082       .  S
C119        C120   1.364       .  D
C120        C121   1.539       .  S
C120        C484   1.477       .  S
C121        C125   1.540       .  S
C121        C123   1.539       .  S
C121        H127   1.106       .  S
C122        H128   1.085       .  S
C122        C123   1.365       .  D
C123        C553   1.486       .  S
C124        H129   1.085       .  S
C124        C125   1.370       .  D
C125        C464   1.495       .  S
C130        C131   1.544       .  S
C130        C136   1.537       .  S
C130        C134   1.542       .  S
C130        C404   1.520       .  S
C131        H138   1.081       .  S
C131        C132   1.363       .  D
C132        C133   1.536       .  S
C132        C673   1.476       .  S
C133        C137   1.536       .  S
C133        C135   1.526       .  S
C133        H139   1.110       .  S
C134        H140   1.086       .  S
C134        C135   1.362       .  D
C135        C533   1.467       .  S
C136        H141   1.086       .  S
C136        C137   1.365       .  D
C137        C433   1.480       .  S
C142        C144   1.546       .  S
C142        C146   1.566       .  S
C142        C145   1.556       .  S
C142        C773   1.542       .  S
C143        C147   1.536       .  S
C143        C149   1.545       .  S
C143        C148   1.523       .  S
C143        C493   1.528       .  S
C144        C152   1.383       .  A
C144        C147   1.390       .  A
C145        C156   1.396       .  A
C145        C148   1.391       .  A
C146        C160   1.400       .  A
C146        C149   1.410       .  A
C147        C150   1.378       .  A
C148        C154   1.372       .  A
C149        C157   1.383       .  A
C150        N151   1.355       .  A
C150        H163   1.081       .  S
N151        C152   1.356       .  A
N151        C393   1.436       .  S
C152        H153   1.081       .  S
C154        N155   1.352       .  A
C154        H164   1.082       .  S
N155        C156   1.368       .  A
C156        H162   1.082       .  S
C157        N158   1.352       .  A
C157        H159   1.076       .  S
N158        C160   1.360       .  A
N158        C373   1.458       .  S
C160        H161   1.078       .  S
C165        C166   1.537       .  S
C165        C171   1.540       .  S
C165        C169   1.537       .  S
C165        C333   1.520       .  S
C166        H173   1.085       .  S
C166        C167   1.367       .  D
C167        C168   1.537       .  S
C167        C813   1.485       .  S
C168        C172   1.540       .  S
C168        C170   1.537       .  S
C168        H174   1.106       .  S
C169        H175   1.085       .  S
C169        C170   1.366       .  D
C170        C384   1.491       .  S
C171        H176   1.082       .  S
C171        C172   1.364       .  D
C172        C344   1.481       .  S
C177        C178   1.539       .  S
C177        C183   1.534       .  S
C177        C181   1.535       .  S
C177        C284   1.535       .  S
C178        H185   1.080       .  S
C178        C179   1.364       .  D
C179        C180   1.550       .  S
C179        C513   1.495       .  S
C180        C184   1.557       .  S
C180        C182   1.547       .  S
C180        H186   1.110       .  S
C181        H187   1.086       .  S
C181        C182   1.369       .  D
C182        C364   1.489       .  S
C183        H188   1.086       .  S
C183        C184   1.369       .  D
C184        C313   1.502       .  S
C189        C191   1.549       .  S
C189        C193   1.560       .  S
C189        C192   1.565       .  S
C189        C633   1.544       .  S
C190        C194   1.529       .  S
C190        C196   1.535       .  S
C190        C195   1.546       .  S
C190        C353   1.530       .  S
C191        C199   1.390       .  A
C191        C194   1.383       .  A
C192        C203   1.394   1_554  A
C192        C195   1.410       .  A
C193        C207   1.395       .  A
C193        C196   1.390       .  A
C194        C197   1.374       .  A
C195        C201   1.383   1_554  A
C196        C204   1.377       .  A
C197        N198   1.354       .  A
C197        H210   1.082       .  S
N198        C199   1.363       .  A
N198        C473   1.446       .  S
C199        H200   1.080       .  S
C201        N202   1.354       .  A
C201        H211   1.081       .  S
N202        C203   1.365       .  A
N202        N225   1.416       .  S
C203        H209   1.081       .  S
C204        N205   1.355       .  A
C204        H206   1.081       .  S
N205        C207   1.362       .  A
N205        C864   1.449       .  S
C207        H208   1.080       .  S
C212        C214   1.535       .  S
C212        C216   1.542       .  S
C212        C215   1.573       .  S
C212        C304   1.541       .  S
C213        C217   1.531       .  S
C213        C219   1.532       .  S
C213        C218   1.558       .  S
C213        C593   1.531       .  S
C214        C222   1.377       .  A
C214        C217   1.376       .  A
C215        C226   1.396       .  A
C215        C218   1.423       .  A
C216        C230   1.386       .  A
C216        C219   1.380       .  A
C217        C220   1.376       .  A
C218        C224   1.384       .  A
C219        C227   1.379       .  A
C220        N221   1.361       .  A
C220        H233   1.080       .  S
N221        C222   1.362       .  A
N221        C424   1.448       .  S
C222        H223   1.080       .  S
C224        N225   1.355       .  A
C224        H234   1.076       .  S
N225        C226   1.364       .  A
C226        H232   1.080       .  S
C227        N228   1.360       .  A
C227        H229   1.082       .  S
N228        C230   1.363       .  A
N228        C753   1.450       .  S
C230        H231   1.082       .  S
N235        N236   1.322   1_556  A
N235        N241   1.315       .  A
N235       Mn264   2.207   1_455  S
N236        C243   1.355       .  A
N237        N239   1.314       .  A
N237        N238   1.319       .  A
N237       Mn253   2.195   1_545  S
N238        C244   1.354       .  A
N239        N240   1.318       .  A
N239       Mn264   2.189   1_455  S
N240        C244   1.352       .  A
N241        N242   1.319   1_556  A
N241       Mn253   2.199   1_545  S
N242        C243   1.353       .  A
C243        C853   1.480       .  S
C244        C573   1.471       .  S
N245        N251   1.316       .  A
N245        N246   1.323       .  A
N245       Mn275   2.210   1_455  S
N246        C254   1.356       .  A
N247        N248   1.318   1_556  A
N247        N249   1.315       .  A
N247       Mn253   2.191       .  S
N248        C255   1.352       .  A
N249        N250   1.320   1_556  A
N249       Mn275   2.201   1_455  S
N250        C255   1.354       .  A
N251        N252   1.319       .  A
N251       Mn253   2.202       .  S
N252        C254   1.353       .  A
Mn253      Cl277   2.538   1_455  S
C254        C724   1.481       .  S
C255        C324   1.472       .  S
N256        N257   1.320       .  A
N256        N262   1.315       .  A
N256       Mn264   2.201       .  S
N257        C265   1.354       .  A
N258        N260   1.314       .  A
N258        N259   1.321   1_556  A
N258       Mn276   2.200   1_545  S
N259        C266   1.354       .  A
N260        N261   1.317   1_556  A
N260       Mn264   2.190       .  S
N261        C266   1.352       .  A
N262        N263   1.317       .  A
N262       Mn276   2.181   1_545  S
N263        C265   1.351       .  A
Mn264      Cl277   2.544   1_545  S
C265        C413   1.470       .  S
C266        C604   1.472       .  S
N267        N268   1.323   1_556  A
N267        N273   1.315       .  A
N267       Mn275   2.210       .  S
N268        C278   1.357       .  A
N269        N270   1.321       .  A
N269        N271   1.315       .  A
N269       Mn276   2.205       .  S
N270        C279   1.354       .  A
N271        N272   1.319       .  A
N271       Mn275   2.200       .  S
N272        C279   1.354       .  A
N273        N274   1.314   1_556  A
N273       Mn276   2.177       .  S
N274        C278   1.348       .  A
Mn275      Cl277   2.552       .  S
Mn276      Cl277   2.541       .  S
C278        C453   1.472       .  S
C279        C293   1.480       .  S
C280        C281   1.406       .  A
C280        C285   1.402       .  A
C280        H290   1.083       .  S
C281        C282   1.402       .  A
C281        C286   1.490       .  S
C282        C283   1.395       .  A
C282        H287   1.083       .  S
C283        C284   1.412       .  A
C283        H288   1.075       .  S
C284        C285   1.411       .  A
C285        H289   1.083       .  S
C286        C291   1.407       .  A
C286        C295   1.407       .  A
C291        C292   1.401       .  A
C291        H296   1.083       .  S
C292        C293   1.405       .  A
C292        H297   1.083       .  S
C293        C294   1.403       .  A
C294        C295   1.396       .  A
C294        H298   1.083       .  S
C295        H299   1.083       .  S
C300        C301   1.416       .  A
C300        C305   1.417       .  A
C300        H310   1.082       .  S
C301        C302   1.399       .  A
C301        C306   1.502       .  S
C302        C303   1.391       .  A
C302        H307   1.083       .  S
C303        C304   1.415       .  A
C303        H308   1.084       .  S
C304        C305   1.407       .  A
C305        H309   1.078       .  S
C306        C311   1.404       .  A
C306        C315   1.413       .  A
C311        C312   1.404       .  A
C311        H316   1.083       .  S
C312        C313   1.412       .  A
C312        H317   1.082       .  S
C313        C314   1.404       .  A
C314        C315   1.407       .  A
C314        H318   1.083       .  S
C315        H319   1.083       .  S
C320        C321   1.403       .  A
C320        C325   1.396       .  A
C320        H330   1.083       .  S
C321        C322   1.402       .  A
C321        C326   1.473       .  S
C322        C323   1.394       .  A
C322        H327   1.083       .  S
C323        C324   1.405       .  A
C323        H328   1.083       .  S
C324        C325   1.404       .  A
C325        H329   1.083       .  S
C326        C331   1.399       .  A
C326        C335   1.402       .  A
C331        C332   1.394       .  A
C331        H336   1.083       .  S
C332        C333   1.411       .  A
C332        H337   1.083       .  S
C333        C334   1.408       .  A
C334        C335   1.395       .  A
C334        H338   1.078       .  S
C335        H339   1.083       .  S
C340        C341   1.402       .  A
C340        C345   1.400       .  A
C340        H350   1.083       .  S
C341        C342   1.406       .  A
C341        C346   1.478       .  S
C342        C343   1.393       .  A
C342        H347   1.083       .  S
C343        C344   1.401       .  A
C343        H348   1.083       .  S
C344        C345   1.407       .  A
C345        H349   1.083       .  S
C346        C351   1.405       .  A
C346        C355   1.397       .  A
C351        C352   1.405       .  A
C351        H356   1.083       .  S
C352        C353   1.408       .  A
C352        H357   1.076       .  S
C353        C354   1.413       .  A
C354        C355   1.386       .  A
C354        H358   1.083       .  S
C355        H359   1.084       .  S
C360        C361   1.405       .  A
C360        C365   1.398       .  A
C360        H370   1.083       .  S
C361        C362   1.408       .  A
C361        C366   1.491       .  S
C362        C363   1.406       .  A
C362        H367   1.083       .  S
C363        C364   1.405       .  A
C363        H368   1.083       .  S
C364        C365   1.405       .  A
C365        H369   1.083       .  S
C366        C371   1.405       .  A
C366        C375   1.402       .  A
C371        C372   1.405       .  A
C371        H376   1.083       .  S
C372        C373   1.411       .  A
C372        H377   1.081       .  S
C373        C374   1.414       .  A
C374        C375   1.399       .  A
C374        H378   1.078       .  S
C375        H379   1.083       .  S
C380        C381   1.399       .  A
C380        C385   1.397       .  A
C380        H390   1.083       .  S
C381        C382   1.402       .  A
C381        C386   1.472       .  S
C382        C383   1.398       .  A
C382        H387   1.083       .  S
C383        C384   1.408       .  A
C383        H388   1.082       .  S
C384        C385   1.409       .  A
C385        H389   1.081       .  S
C386        C391   1.402       .  A
C386        C395   1.402       .  A
C391        C392   1.398       .  A
C391        H396   1.083       .  S
C392        C393   1.406       .  A
C392        H397   1.083       .  S
C393        C394   1.403       .  A
C394        C395   1.397       .  A
C394        H398   1.083       .  S
C395        H399   1.083       .  S
C400        C401   1.402       .  A
C400        C405   1.393       .  A
C400        H410   1.083       .  S
C401        C402   1.403       .  A
C401        C406   1.478       .  S
C402        C403   1.394       .  A
C402        H407   1.083       .  S
C403        C404   1.409       .  A
C403        H408   1.076       .  S
C404        C405   1.408       .  A
C405        H409   1.083       .  S
C406        C411   1.405       .  A
C406        C415   1.404       .  A
C411        C412   1.395       .  A
C411        H416   1.083       .  S
C412        C413   1.402       .  A
C412        H417   1.083       .  S
C413        C414   1.403       .  A
C414        C415   1.393       .  A
C414        H418   1.083       .  S
C415        H419   1.083       .  S
C420        C421   1.403       .  A
C420        C425   1.395       .  A
C420        H430   1.083       .  S
C421        C422   1.402       .  A
C421        C426   1.482       .  S
C422        C423   1.396       .  A
C422        H427   1.083       .  S
C423        C424   1.410       .  A
C423        H428   1.079       .  S
C424        C425   1.409       .  A
C425        H429   1.079       .  S
C426        C431   1.405       .  A
C426        C435   1.406       .  A
C431        C432   1.396       .  A
C431        H436   1.083       .  S
C432        C433   1.404       .  A
C432        H437   1.082       .  S
C433        C434   1.404       .  A
C434        C435   1.396       .  A
C434        H438   1.083       .  S
C435        H439   1.083       .  S
C440        C441   1.406       .  A
C440        C445   1.396       .  A
C440        H450   1.083       .  S
C441        C442   1.403       .  A
C441        C446   1.485       .  S
C442        C443   1.394       .  A
C442        H447   1.082       .  S
C443        C444   1.408       .  A
C443        H448   1.083       .  S
C444        C445   1.408       .  A
C445        H449   1.077       .  S
C446        C451   1.405       .  A
C446        C455   1.409       .  A
C451        C452   1.391       .  A
C451        H456   1.082       .  S
C452        C453   1.403       .  A
C452        H457   1.083       .  S
C453        C454   1.402       .  A
C454        C455   1.400       .  A
C454        H458   1.083       .  S
C455        H459   1.082       .  S
C460        C461   1.407       .  A
C460        C465   1.401       .  A
C460        H470   1.082       .  S
C461        C462   1.406       .  A
C461        C466   1.493       .  S
C462        C463   1.396       .  A
C462        H467   1.082       .  S
C463        C464   1.406       .  A
C463        H468   1.081       .  S
C464        C465   1.408       .  A
C465        H469   1.080       .  S
C466        C471   1.408       .  A
C466        C475   1.406       .  A
C471        C472   1.397       .  A
C471        H476   1.082       .  S
C472        C473   1.404       .  A
C472        H477   1.081       .  S
C473        C474   1.409       .  A
C474        C475   1.400       .  A
C474        H478   1.082       .  S
C475        H479   1.082       .  S
C480        C481   1.405       .  A
C480        C485   1.397       .  A
C480        H490   1.083       .  S
C481        C482   1.406       .  A
C481        C486   1.481       .  S
C482        C483   1.395       .  A
C482        H487   1.083       .  S
C483        C484   1.400       .  A
C483        H488   1.081       .  S
C484        C485   1.405       .  A
C485        H489   1.083       .  S
C486        C491   1.404       .  A
C486        C495   1.404       .  A
C491        C492   1.396       .  A
C491        H496   1.083       .  S
C492        C493   1.407       .  A
C492        H497   1.080       .  S
C493        C494   1.407       .  A
C494        C495   1.396       .  A
C494        H498   1.082       .  S
C495        H499   1.083       .  S
C500        C501   1.407       .  A
C500        C505   1.403       .  A
C500        H510   1.083       .  S
C501        C502   1.410       .  A
C501        C506   1.503       .  S
C502        C503   1.404       .  A
C502        H507   1.082       .  S
C503        C504   1.408       .  A
C503        H508   1.082       .  S
C504        C505   1.407       .  A
C505        H509   1.078       .  S
C506        C511   1.414       .  A
C506        C515   1.406       .  A
C511        C512   1.408       .  A
C511        H516   1.082       .  S
C512        C513   1.402       .  A
C512        H517   1.083       .  S
C513        C514   1.409       .  A
C514        C515   1.399       .  A
C514        H518   1.083       .  S
C515        H519   1.082       .  S
C520        C521   1.406       .  A
C520        C525   1.397       .  A
C520        H530   1.083       .  S
C521        C522   1.405       .  A
C521        C526   1.484       .  S
C522        C523   1.397       .  A
C522        H527   1.083       .  S
C523        C524   1.406       .  A
C523        H528   1.083       .  S
C524        C525   1.403       .  A
C525        H529   1.082       .  S
C526        C531   1.407       .  A
C526        C535   1.407       .  A
C531        C532   1.396       .  A
C531        H536   1.083       .  S
C532        C533   1.399       .  A
C532        H537   1.083       .  S
C533        C534   1.400       .  A
C534        C535   1.398       .  A
C534        H538   1.083       .  S
C535        H539   1.083       .  S
C540        C541   1.403       .  A
C540        C545   1.391       .  A
C540        H550   1.083       .  S
C541        C542   1.404       .  A
C541        C546   1.480       .  S
C542        C543   1.400       .  A
C542        H547   1.083       .  S
C543        C544   1.409       .  A
C543        H548   1.081       .  S
C544        C545   1.407       .  A
C545        H549   1.080       .  S
C546        C551   1.403       .  A
C546        C555   1.404       .  A
C551        C552   1.390       .  A
C551        H556   1.083       .  S
C552        C553   1.405       .  A
C552        H557   1.082       .  S
C553        C554   1.407       .  A
C554        C555   1.400       .  A
C554        H558   1.082       .  S
C555        H559   1.083       .  S
C560        C561   1.402       .  A
C560        C565   1.396       .  A
C560        H570   1.083       .  S
C561        C562   1.399       .  A
C561        C566   1.472       .  S
C562        C563   1.393       .  A
C562        H567   1.083       .  S
C563        C564   1.410       .  A
C563        H568   1.082       .  S
C564        C565   1.409       .  A
C565        H569   1.080       .  S
C566        C571   1.403       .  A
C566        C575   1.402       .  A
C571        C572   1.396       .  A
C571        H576   1.083       .  S
C572        C573   1.405       .  A
C572        H577   1.083       .  S
C573        C574   1.403       .  A
C574        C575   1.394       .  A
C574        H578   1.083       .  S
C575        H579   1.083       .  S
C580        C581   1.405       .  A
C580        C585   1.402       .  A
C580        H590   1.083       .  S
C581        C582   1.405       .  A
C581        C586   1.481       .  S
C582        C583   1.391       .  A
C582        H587   1.083       .  S
C583        C584   1.399       .  A
C583        H588   1.080       .  S
C584        C585   1.406       .  A
C585        H589   1.083       .  S
C586        C591   1.407       .  A
C586        C595   1.398       .  A
C591        C592   1.408       .  A
C591        H596   1.083       .  S
C592        C593   1.408       .  A
C592        H597   1.072       .  S
C593        C594   1.411       .  A
C594        C595   1.384       .  A
C594        H598   1.084       .  S
C595        H599   1.083       .  S
C600        C601   1.406       .  A
C600        C605   1.399       .  A
C600        H610   1.083       .  S
C601        C602   1.404       .  A
C601        C606   1.480       .  S
C602        C603   1.393       .  A
C602        H607   1.083       .  S
C603        C604   1.402       .  A
C603        H608   1.083       .  S
C604        C605   1.405       .  A
C605        H609   1.083       .  S
C606        C611   1.404       .  A
C606        C615   1.401       .  A
C611        C612   1.399       .  A
C611        H616   1.083       .  S
C612        C613   1.409       .  A
C612        H617   1.083       .  S
C613        C614   1.411       .  A
C614        C615   1.393       .  A
C614        H618   1.079       .  S
C615        H619   1.083       .  S
C620        C621   1.410       .  A
C620        C625   1.404       .  A
C620        H630   1.083       .  S
C621        C622   1.406       .  A
C621        C626   1.496       .  S
C622        C623   1.404       .  A
C622        H627   1.083       .  S
C623        C624   1.407       .  A
C623        H628   1.083       .  S
C624        C625   1.402       .  A
C625        H629   1.083       .  S
C626        C631   1.405       .  A
C626        C635   1.407       .  A
C631        C632   1.401       .  A
C631        H636   1.083       .  S
C632        C633   1.408       .  A
C632        H637   1.080       .  S
C633        C634   1.410       .  A
C634        C635   1.406       .  A
C634        H638   1.082       .  S
C635        H639   1.083       .  S
C640        C641   1.404       .  A
C640        C645   1.396       .  A
C640        H650   1.082       .  S
C641        C642   1.415       .  A
C641        C646   1.505       .  S
C642        C643   1.412       .  A
C642        H647   1.082       .  S
C643        C644   1.405       .  A
C643        H648   1.083       .  S
C644        C645   1.409       .  A
C645        H649   1.083       .  S
C646        C651   1.411       .  A
C646        C655   1.407       .  A
C651        C652   1.402       .  A
C651        H656   1.081       .  S
C652        C653   1.406       .  A
C652        H657   1.080       .  S
C653        C654   1.411       .  A
C654        C655   1.407       .  A
C654        H658   1.081       .  S
C655        H659   1.083       .  S
C660        C661   1.405       .  A
C660        C665   1.405       .  A
C660        H670   1.083       .  S
C661        C662   1.398       .  A
C661        C666   1.477       .  S
C662        C663   1.383       .  A
C662        H667   1.083       .  S
C663        C664   1.408       .  A
C663        H668   1.084       .  S
C664        C665   1.409       .  A
C665        H669   1.072       .  S
C666        C671   1.404       .  A
C666        C675   1.405       .  A
C671        C672   1.399       .  A
C671        H676   1.083       .  S
C672        C673   1.406       .  A
C672        H677   1.083       .  S
C673        C674   1.400       .  A
C674        C675   1.390       .  A
C674        H678   1.082       .  S
C675        H679   1.083       .  S
C680        C681   1.404       .  A
C680        C685   1.391       .  A
C680        H690   1.083       .  S
C681        C682   1.405       .  A
C681        C686   1.482       .  S
C682        C683   1.399       .  A
C682        H687   1.083       .  S
C683        C684   1.407       .  A
C683        H688   1.082       .  S
C684        C685   1.405       .  A
C685        H689   1.082       .  S
C686        C691   1.405       .  A
C686        C695   1.404       .  A
C691        C692   1.399       .  A
C691        H696   1.083       .  S
C692        C693   1.407       .  A
C692        H697   1.082       .  S
C693        C694   1.404       .  A
C694        C695   1.390       .  A
C694        H698   1.081       .  S
C695        H699   1.083       .  S
C700        C701   1.409       .  A
C700        C705   1.407       .  A
C700        H710   1.083       .  S
C701        C702   1.404       .  A
C701        C706   1.493       .  S
C702        C703   1.399       .  A
C702        H707   1.083       .  S
C703        C704   1.409       .  A
C703        H708   1.083       .  S
C704        C705   1.405       .  A
C705        H709   1.083       .  S
C706        C711   1.405       .  A
C706        C715   1.406       .  A
C711        C712   1.403       .  A
C711        H716   1.083       .  S
C712        C713   1.412       .  A
C712        H717   1.080       .  S
C713        C714   1.410       .  A
C714        C715   1.402       .  A
C714        H718   1.081       .  S
C715        H719   1.083       .  S
C720        C721   1.409       .  A
C720        C725   1.402       .  A
C720        H730   1.083       .  S
C721        C722   1.404       .  A
C721        C726   1.489       .  S
C722        C723   1.397       .  A
C722        H727   1.083       .  S
C723        C724   1.405       .  A
C723        H728   1.083       .  S
C724        C725   1.405       .  A
C725        H729   1.083       .  S
C726        C731   1.406       .  A
C726        C735   1.401       .  A
C731        C732   1.401       .  A
C731        H736   1.083       .  S
C732        C733   1.409       .  A
C732        H737   1.083       .  S
C733        C734   1.415       .  A
C734        C735   1.397       .  A
C734        H738   1.075       .  S
C735        H739   1.083       .  S
C740        C741   1.406       .  A
C740        C745   1.400       .  A
C740        H750   1.083       .  S
C741        C742   1.409       .  A
C741        C746   1.496       .  S
C742        C743   1.404       .  A
C742        H747   1.083       .  S
C743        C744   1.405       .  A
C743        H748   1.082       .  S
C744        C745   1.408       .  A
C745        H749   1.083       .  S
C746        C751   1.408       .  A
C746        C755   1.406       .  A
C751        C752   1.403       .  A
C751        H756   1.083       .  S
C752        C753   1.407       .  A
C752        H757   1.082       .  S
C753        C754   1.408       .  A
C754        C755   1.400       .  A
C754        H758   1.081       .  S
C755        H759   1.083       .  S
C760        C761   1.409       .  A
C760        C765   1.404       .  A
C760        H770   1.083       .  S
C761        C762   1.406       .  A
C761        C766   1.497       .  S
C762        C763   1.405       .  A
C762        H767   1.083       .  S
C763        C764   1.408       .  A
C763        H768   1.083       .  S
C764        C765   1.404       .  A
C765        H769   1.083       .  S
C766        C771   1.406       .  A
C766        C775   1.407       .  A
C771        C772   1.402       .  A
C771        H776   1.083       .  S
C772        C773   1.407       .  A
C772        H777   1.078       .  S
C773        C774   1.411       .  A
C774        C775   1.405       .  A
C774        H778   1.083       .  S
C775        H779   1.083       .  S
C780        C781   1.405       .  A
C780        C785   1.396       .  A
C780        H790   1.082       .  S
C781        C782   1.404       .  A
C781        C786   1.487       .  S
C782        C783   1.396       .  A
C782        H787   1.083       .  S
C783        C784   1.408       .  A
C783        H788   1.078       .  S
C784        C785   1.408       .  A
C785        H789   1.081       .  S
C786        C791   1.406       .  A
C786        C795   1.406       .  A
C791        C792   1.395       .  A
C791        H796   1.083       .  S
C792        C793   1.406       .  A
C792        H797   1.081       .  S
C793        C794   1.406       .  A
C794        C795   1.396       .  A
C794        H798   1.081       .  S
C795        H799   1.082       .  S
C800        C801   1.405       .  A
C800        C805   1.393       .  A
C800        H810   1.083       .  S
C801        C802   1.403       .  A
C801        C806   1.481       .  S
C802        C803   1.397       .  A
C802        H807   1.083       .  S
C803        C804   1.409       .  A
C803        H808   1.081       .  S
C804        C805   1.405       .  A
C805        H809   1.081       .  S
C806        C811   1.403       .  A
C806        C815   1.405       .  A
C811        C812   1.391       .  A
C811        H816   1.083       .  S
C812        C813   1.405       .  A
C812        H817   1.082       .  S
C813        C814   1.406       .  A
C814        C815   1.399       .  A
C814        H818   1.082       .  S
C815        H819   1.083       .  S
C820        C821   1.414       .  A
C820        C825   1.408       .  A
C820        H830   1.082       .  S
C821        C822   1.405       .  A
C821        C826   1.503       .  S
C822        C823   1.397       .  A
C822        H827   1.082       .  S
C823        C824   1.409       .  A
C823        H828   1.083       .  S
C824        C825   1.403       .  A
C825        H829   1.083       .  S
C826        C831   1.407       .  A
C826        C835   1.410       .  A
C831        C832   1.404       .  A
C831        H836   1.082       .  S
C832        C833   1.407       .  A
C832        H837   1.078       .  S
C833        C834   1.407       .  A
C834        C835   1.403       .  A
C834        H838   1.082       .  S
C835        H839   1.081       .  S
C840        C841   1.404       .  A
C840        C845   1.401       .  A
C840        H850   1.083       .  S
C841        C842   1.402       .  A
C841        C846   1.485       .  S
C842        C843   1.395       .  A
C842        H847   1.083       .  S
C843        C844   1.410       .  A
C843        H848   1.077       .  S
C844        C845   1.411       .  A
C845        H849   1.083       .  S
C846        C851   1.406       .  A
C846        C855   1.405       .  A
C851        C852   1.401       .  A
C851        H856   1.083       .  S
C852        C853   1.406       .  A
C852        H857   1.083       .  S
C853        C854   1.404       .  A
C854        C855   1.397       .  A
C854        H858   1.083       .  S
C855        H859   1.083       .  S
C860        C861   1.411       .  A
C860        C865   1.403       .  A
C860        H870   1.082       .  S
C861        C862   1.407       .  A
C861        C866   1.499       .  S
C862        C863   1.400       .  A
C862        H867   1.082       .  S
C863        C864   1.408       .  A
C863        H868   1.082       .  S
C864        C865   1.406       .  A
C865        H869   1.082       .  S
C866        C871   1.406       .  A
C866        C875   1.412       .  A
C871        C872   1.397       .  A
C871        H876   1.082       .  S
C872        C873   1.408       .  A
C872        H877   1.082       .  S
C873        C874   1.405       .  A
C874        C875   1.406       .  A
C874        H878   1.080       .  S
C875        H879   1.082       .  S
C880        C881   1.412       .  A
C880        C885   1.404       .  A
C880        H890   1.083       .  S
C881        C882   1.404       .  A
C881        C886   1.497       .  S
C882        C883   1.400       .  A
C882        H887   1.083       .  S
C883        C884   1.410       .  A
C883        H888   1.082       .  S
C884        C885   1.403       .  A
C885        H889   1.083       .  S
C886        C891   1.399       .  A
C886        C895   1.414       .  A
C891        C892   1.391       .  A
C891        H896   1.083       .  S
C892        C893   1.413       .  A
C892        H897   1.083       .  S
C893        C894   1.406       .  A
C894        C895   1.412       .  A
C894        H898   1.076       .  S
C895        H899   1.082       .  S
C900        C901   1.398       .  A
C900        C905   1.387       .  A
C900        H910   1.083       .  S
C901        C902   1.414       .  A
C901        C906   1.496       .  S
C902        C903   1.415       .  A
C902        H907   1.082       .  S
C903        C904   1.408       .  A
C903        H908   1.078       .  S
C904        C905   1.413       .  A
C905        H909   1.083       .  S
C906        C911   1.411       .  A
C906        C915   1.404       .  A
C911        C912   1.400       .  A
C911        H916   1.083       .  S
C912        C913   1.402       .  A
C912        H917   1.080       .  S
C913        C914   1.412       .  A
C914        C915   1.404       .  A
C914        H918   1.082       .  S
C915        H919   1.083       .  S
