geometry optimzed in LAMMPS
_audit_creation_date              2020-12-01 
_audit_creation_method            'lammps2cif' 
_symmetry_space_group_name_H-M    'P1' 
_symmetry_Int_Tables_number       1 
_symmetry_cell_setting            triclinic 
loop_ 
_symmetry_equiv_pos_as_xyz 
  x,y,z 
_cell_length_a                    32.06109666 
_cell_length_b                    26.156172513725394 
_cell_length_c                    25.281532231088597 
_cell_angle_alpha                 90.65486636920257 
_cell_angle_beta                  89.40068137531813 
_cell_angle_gamma                 90.12244020872954 
loop_ 
_atom_site_label 
_atom_site_type_symbol 
_atom_site_fract_x 
_atom_site_fract_y 
_atom_site_fract_z 
_atom_site_charge 
O1          O  0.43774343  0.38947220  0.39773339    -0.71300
O2          O  0.38707559  0.43391630  0.44297625    -0.50200
C3          C  0.39924024  0.40082377  0.40806744     0.82400
O4          O  0.07541037  0.40321389  0.10663349    -0.55900
O5          O  0.12260658  0.44671996  0.05600142    -0.49000
C6          C  0.11296948  0.41429680  0.09248612     0.74400
O7          O  0.43771069  0.39431845  0.10601855    -0.70500
O8          O  0.38667853  0.43244142  0.05787078    -0.51100
C9          C  0.39961441  0.40127534  0.09298784     0.80400
O10         O  0.08372118  0.40306868  0.40432234    -0.55600
O11         O  0.12791789  0.45736904  0.44826765    -0.48800
C12         C  0.12027789  0.42043223  0.41619009     0.77000
Zr13       Zr  0.00966676  0.41982672  0.42556600     2.54700
O14         O  0.01427932  0.32741953  0.43443349    -0.76200
O15         O  0.01526295  0.41656320  0.32944586    -0.89600
Zr16       Zr  0.00451688  0.42656697  0.08139336     2.64700
O17         O  0.50988690  0.33403103  0.08765791    -0.94600
O18         O  0.00499890  0.44598156  0.17582401    -0.76600
O19         O  0.46750341  0.42029540  0.50551938    -0.80000
O20         O  0.04401779  0.42026065  0.00216007    -2.14700
O21         O  0.07224609  0.10385244  0.39322247    -0.63400
O22         O  0.12272818  0.06569472  0.44224874    -0.47900
C23         C  0.11070651  0.09643915  0.40594409     0.75400
O24         O  0.42226236  0.10639268  0.08960583    -0.56300
O25         O  0.37611075  0.05060745  0.05167071    -0.48300
C26         C  0.38529994  0.08938332  0.08161968     0.77200
O27         O  0.06384003  0.10880545  0.09795342    -0.67700
O28         O  0.11554351  0.06299772  0.05646047    -0.46400
C29         C  0.10218203  0.09895780  0.08714064     0.78600
O30         O  0.42752370  0.08044246  0.38626640    -0.63000
O31         O  0.38139070  0.03505825  0.43714503    -0.50200
C32         C  0.39038328  0.06547729  0.39935007     0.77000
Zr33       Zr  0.50017772  0.06778861  0.41481341     2.77500
O34         O  0.49168098  0.16015612  0.42074207    -0.93800
O35         O  0.50192768  0.06614187  0.31848824    -0.74600
Zr36       Zr  0.49278952  0.08309571  0.06421370     2.70100
O37         O  0.99223189  0.16833069  0.07291823    -0.75800
O38         O  0.49048823  0.09046677  0.16026296    -0.94900
Zr39       Zr  0.42414029  0.49423157  0.49974642     2.21500
Zr40       Zr  0.08007256  0.00012311  0.00235050     2.11100
O41         O  0.03655457  0.07393854  0.99727177    -2.43600
O42         O  0.45987671  0.06851179  0.49422865    -0.75600
O43         O  0.04614739  0.00204771  0.42266486    -0.67800
O44         O  0.46049613  0.49848402  0.07799345    -2.28800
O45         O  0.46475312  0.48867609  0.41995564    -2.25000
O46         O  0.04003619  0.00297922  0.08214856    -0.68000
H47         H  0.06293125  0.39176236  0.00437624     0.82400
H48         H  0.44220878  0.49913272  0.10855483     0.83500
H49         H  0.05299913  0.10479495  0.99565794     0.85700
H50         H  0.44735852  0.48466443  0.38937135     0.83300
H51         H  0.47664448  0.45082583  0.18540724     0.46400
H52         H  0.01976097  0.05789106  0.18212537     0.45300
H53         H  0.46877412  0.17947261  0.02258765     0.45000
H54         H  0.02080868  0.18081121  0.43636703     0.43000
H55         H  0.99372357  0.03763041  0.31558914     0.46100
H56         H  0.48931409  0.42492603  0.31664185     0.40900
H57         H  0.49193456  0.31770469  0.46959847     0.47000
H58         H  0.03297427  0.32299262  0.07335439     0.43400
H59         H  0.49466058  0.17192649  0.38380652     0.48300
H60         H  0.01182064  0.37993778  0.32013403     0.47000
H61         H  0.51886850  0.32785777  0.12439655     0.47200
H62         H  0.49895335  0.12618818  0.16795905     0.47500
C63         C  0.19142645  0.19110781  0.32251413     0.01500
C64         C  0.20755016  0.33653928  0.33814400     0.01500
C65         C  0.19893377  0.33965429  0.18653148     0.01500
C66         C  0.18335341  0.18909219  0.16831073     0.01500
C67         C  0.31463918  0.16334596  0.33243354     0.01500
C68         C  0.30010283  0.16098315  0.18040130     0.01500
C69         C  0.31717073  0.31184143  0.17406961     0.01500
C70         C  0.32596457  0.29888244  0.32939083     0.01500
C71         C  0.32131719  0.32597382  0.23339343    -0.12500
C72         C  0.33911326  0.29634062  0.27074625    -0.27700
H73         H  0.30671180  0.36086004  0.24709162     0.16500
H74         H  0.36146602  0.26825190  0.25776752     0.17100
C75         C  0.30235969  0.21958280  0.18653623    -0.12500
C76         C  0.32676690  0.25479476  0.16290067    -0.27700
H77         H  0.28039205  0.23445832  0.21542692     0.16500
H78         H  0.35078863  0.24314942  0.13466216     0.17100
C79         C  0.30853486  0.13763645  0.23504275    -0.12500
C80         C  0.32642191  0.16565272  0.27399993    -0.27700
H81         H  0.28880052  0.10610898  0.24773271     0.16500
H82         H  0.35008826  0.19215462  0.26228887     0.17100
C83         C  0.33951621  0.20363806  0.36424978    -0.12500
C84         C  0.34438664  0.25536275  0.36235551    -0.27700
H85         H  0.35853774  0.18779951  0.39570641     0.16500
H86         H  0.36598808  0.26835697  0.39286089     0.17100
C87         C  0.22776222  0.18073423  0.14647824    -0.12500
C88         C  0.25512876  0.14638291  0.16567504    -0.27700
H89         H  0.24090824  0.21158286  0.12349909     0.16500
H90         H  0.24251653  0.11172372  0.18272560     0.17100
C91         C  0.19690979  0.28119705  0.18914918    -0.12500
C92         C  0.17352659  0.24672952  0.16253592    -0.27700
H93         H  0.21840359  0.26566317  0.21749214     0.16500
H94         H  0.15017316  0.25962202  0.13489517     0.17100
C95         C  0.24475267  0.35530175  0.17442385    -0.12500
C96         C  0.27275163  0.32158769  0.15354951    -0.27700
H97         H  0.25654528  0.39029622  0.19219897     0.16500
H98         H  0.25991463  0.29177133  0.12856158     0.17100
C99         C  0.21258115  0.35919984  0.28279830    -0.12500
C100        C  0.18498706  0.35511744  0.24276365    -0.27700
H101        H  0.24359706  0.37160968  0.27310265     0.16500
H102        H  0.15275694  0.34626721  0.25271577     0.17100
C103        C  0.25227341  0.32943637  0.35871895    -0.12500
C104        C  0.27845056  0.29711470  0.33212845    -0.27700
H105        H  0.26423867  0.35519257  0.38898305     0.16500
H106        H  0.26458800  0.27235524  0.30243312     0.17100
C107        C  0.17902044  0.16911206  0.22552938    -0.12500
C108        C  0.16966655  0.19828687  0.26844858    -0.27700
H109        H  0.18982936  0.13066579  0.23315678     0.16500
H110        H  0.15290997  0.23275836  0.26043337     0.17100
C111        C  0.26762433  0.16716143  0.34663941    -0.12500
C112        C  0.23707056  0.17549405  0.31110238    -0.27700
H113        H  0.25894057  0.16494235  0.38821083     0.16500
H114        H  0.24681245  0.18014853  0.27096599     0.17100
C115        C  0.19519163  0.24133419  0.35414700    -0.12500
C116        C  0.18228109  0.28692473  0.33615129    -0.27700
H117        H  0.21809642  0.24176209  0.38550127     0.16500
H118        H  0.15232532  0.28906553  0.31718980     0.17100
C119        C  0.14260896  0.12568778  0.37776177    -0.09300
C120        C  0.16708307  0.15293798  0.35371400    -0.10900
C121        C  0.17043258  0.36407580  0.14772168    -0.09300
C122        C  0.14604496  0.38756862  0.12027002    -0.10900
C123        C  0.35256612  0.11564376  0.11073651    -0.09300
C124        C  0.32896073  0.13832198  0.14054033    -0.10900
C125        C  0.13214126  0.13120105  0.11178219    -0.09300
C126        C  0.15534058  0.15878886  0.13566352    -0.10900
C127        C  0.34425955  0.34638432  0.35293548    -0.09300
C128        C  0.36742529  0.37447035  0.37767946    -0.10900
C129        C  0.35596705  0.08615674  0.37087196    -0.09300
C130        C  0.33096268  0.11414124  0.35082695    -0.10900
C131        C  0.18304497  0.37229242  0.37046703    -0.09300
C132        C  0.15566346  0.39609280  0.39222101    -0.10900
C133        C  0.36936611  0.37103299  0.11994578    -0.09300
C134        C  0.34568476  0.34407756  0.14394627    -0.10900
O135        O  0.43626514  0.38820288  0.89489015    -0.71300
O136        O  0.38518679  0.43210188  0.93984863    -0.50200
C137        C  0.39759524  0.39914784  0.90505396     0.82400
O138        O  0.07713275  0.40634414  0.60659310    -0.55900
O139        O  0.12428708  0.45464640  0.56069773    -0.49000
C140        C  0.11454261  0.41938294  0.59400050     0.74400
O141        O  0.43951303  0.40049827  0.60845703    -0.70500
O142        O  0.38848378  0.43897220  0.56061393    -0.51100
C143        C  0.40146397  0.40818761  0.59584747     0.80400
O144        O  0.07585565  0.38702649  0.90224516    -0.55600
O145        O  0.12266466  0.44055593  0.94241664    -0.48800
C146        C  0.11330194  0.40223678  0.91255508     0.77000
Zr147      Zr  0.00336378  0.41106148  0.92471523     2.54700
O148        O  0.00469477  0.31873679  0.93564144    -0.76200
O149        O  0.00788730  0.40366832  0.82873118    -0.89600
Zr150      Zr  0.00657067  0.43042181  0.58258780     2.64700
O151        O  0.50859798  0.33959991  0.59832852    -0.94600
O152        O  0.00736154  0.44498908  0.67789024    -0.76600
O153        O  0.46545987  0.41699689  0.00283953    -0.80000
O154        O  0.04814754  0.42867347  0.50474656    -2.14700
O155        O  0.06695750  0.09539969  0.89267598    -0.63400
O156        O  0.11694038  0.05640566  0.94190104    -0.47900
C157        C  0.10506110  0.08753260  0.90605667     0.75400
O158        O  0.43128604  0.10077837  0.59482697    -0.56300
O159        O  0.38359122  0.04991590  0.55329813    -0.48300
C160        C  0.39376414  0.08757249  0.58422360     0.77200
O161        O  0.06931258  0.10914603  0.60716978    -0.67700
O162        O  0.12082830  0.06615803  0.56235042    -0.46400
C163        C  0.10761373  0.09934911  0.59639137     0.78600
O164        O  0.42153914  0.07379597  0.87969283    -0.63000
O165        O  0.37477382  0.03254855  0.93334018    -0.50200
C166        C  0.38422500  0.06040412  0.89359865     0.77000
Zr167      Zr  0.49428035  0.06348145  0.90839086     2.77500
O168        O  0.48559217  0.15557314  0.90035979    -0.93800
O169        O  0.49693118  0.05136373  0.81278739    -0.74600
Zr170      Zr  0.50075936  0.07139738  0.57168141     2.70100
O171        O  0.00046629  0.17210397  0.57774139    -0.75800
O172        O  0.50089852  0.06404344  0.66761861    -0.94900
Zr173      Zr  0.42191444  0.49067862  0.99839145     2.21500
Zr174      Zr  0.08576116  0.00785401  0.50220330     2.11100
O175        O  0.04220722  0.08169109  0.49983652    -2.43600
O176        O  0.45264044  0.07061079  0.98654594    -0.75600
O177        O  0.04131105  0.99312174  0.92220747    -0.67800
O178        O  0.46343532  0.50371276  0.57852939    -2.28800
O179        O  0.46334766  0.48867544  0.91926058    -2.25000
O180        O  0.04618103  0.00689167  0.58242322    -0.68000
H181        H  0.06768474  0.40075875  0.50619334     0.82400
H182        H  0.44552757  0.50531026  0.60939771     0.83500
H183        H  0.05870890  0.11270435  0.49931516     0.85700
H184        H  0.44621078  0.48538802  0.88824594     0.83300
H185        H  0.53677197  0.46485817  0.68436960     0.46400
H186        H  0.02162765  0.05714938  0.68575496     0.45300
H187        H  0.48926770  0.17461942  0.54048191     0.45000
H188        H  0.01522678  0.17162862  0.93604823     0.43000
H189        H  0.00985369  0.02079364  0.81663081     0.46100
H190        H  0.48643229  0.42925320  0.81546927     0.40900
H191        H  0.49003182  0.31734088  0.96669646     0.47000
H192        H  0.02961416  0.32603546  0.56530630     0.43400
H193        H  0.49374214  0.16295701  0.86333129     0.48300
H194        H  0.00110963  0.36741753  0.82098132     0.47000
H195        H  0.52193037  0.33549463  0.63318026     0.47200
H196        H  0.50324023  0.09972838  0.68077047     0.47500
C197        C  0.19125147  0.17284818  0.82309523     0.01500
C198        C  0.20486962  0.32340221  0.83108142     0.01500
C199        C  0.20048280  0.34378820  0.68404534     0.01500
C200        C  0.19231104  0.19340027  0.66726052     0.01500
C201        C  0.31560387  0.16254622  0.82514019     0.01500
C202        C  0.30400382  0.16596520  0.67091675     0.01500
C203        C  0.31853503  0.31785812  0.67238437     0.01500
C204        C  0.32592246  0.29597302  0.82614283     0.01500
C205        C  0.32155120  0.32833330  0.73242929    -0.12500
C206        C  0.33952717  0.29681895  0.76785196    -0.27700
H207        H  0.30601017  0.36179425  0.74829786     0.16500
H208        H  0.36173548  0.26908799  0.75339096     0.17100
C209        C  0.30560450  0.22452185  0.67890638    -0.12500
C210        C  0.32921868  0.26164060  0.65747493    -0.27700
H211        H  0.28356539  0.23788889  0.70807955     0.16500
H212        H  0.35366225  0.25219140  0.62895447     0.17100
C213        C  0.30637950  0.14249717  0.72655735    -0.12500
C214        C  0.32628712  0.16655838  0.76646758    -0.27700
H215        H  0.28407410  0.11316329  0.73722281     0.16500
H216        H  0.35171800  0.19117290  0.75534413     0.17100
C217        C  0.34381354  0.20017774  0.85572561    -0.12500
C218        C  0.34706337  0.25219370  0.85640676    -0.27700
H219        H  0.36513906  0.18264356  0.88355455     0.16500
H220        H  0.36996171  0.26489580  0.88541670     0.17100
C221        C  0.23279339  0.18647216  0.63523196    -0.12500
C222        C  0.26117841  0.15080380  0.64863613    -0.27700
H223        H  0.24426757  0.21947602  0.61401537     0.16500
H224        H  0.24836529  0.11475759  0.66249788     0.17100
C225        C  0.20101302  0.28577094  0.68499822    -0.12500
C226        C  0.17802726  0.24919350  0.66127057    -0.27700
H227        H  0.22474252  0.27297625  0.71150514     0.16500
H228        H  0.15158961  0.25915985  0.63696292     0.17100
C229        C  0.24604078  0.36163866  0.67350727    -0.12500
C230        C  0.27473098  0.32951855  0.65083893    -0.27700
H231        H  0.25731355  0.39456317  0.69552059     0.16500
H232        H  0.26257574  0.30129221  0.62333047     0.17100
C233        C  0.21091968  0.35553610  0.78123543    -0.12500
C234        C  0.18458605  0.35694381  0.73997601    -0.27700
H235        H  0.24186283  0.37029245  0.77473256     0.16500
H236        H  0.15231980  0.34618459  0.74787858     0.17100
C237        C  0.24922551  0.31878712  0.85418122    -0.12500
C238        C  0.27827278  0.29097036  0.82686927    -0.27700
H239        H  0.25873353  0.34429178  0.88604294     0.16500
H240        H  0.26652502  0.26638004  0.79549128     0.17100
C241        C  0.20166310  0.18274945  0.72559918    -0.12500
C242        C  0.17537649  0.17140339  0.76558908    -0.27700
H243        H  0.23296283  0.19168450  0.73743819     0.16500
H244        H  0.14265989  0.16422117  0.75738874     0.17100
C245        C  0.27005666  0.17365506  0.84066085    -0.12500
C246        C  0.23538466  0.14832639  0.82420337    -0.27700
H247        H  0.26565606  0.20532827  0.86772964     0.16500
H248        H  0.23907217  0.11175529  0.80408282     0.17100
C249        C  0.19180937  0.22792373  0.84627044    -0.12500
C250        C  0.18648220  0.27051306  0.81716519    -0.27700
H251        H  0.20228910  0.23287223  0.88674420     0.16500
H252        H  0.17283179  0.26591228  0.77875292     0.17100
C253        C  0.13684558  0.11648969  0.87899260    -0.09300
C254        C  0.16236017  0.14174539  0.85522105    -0.10900
C255        C  0.17203245  0.36722602  0.64543994    -0.09300
C256        C  0.14746168  0.39141694  0.61951519    -0.10900
C257        C  0.36140495  0.11772747  0.61014920    -0.09300
C258        C  0.33665016  0.14304592  0.63606187    -0.10900
C259        C  0.13770444  0.12922930  0.62403922    -0.09300
C260        C  0.16169784  0.15766716  0.64563963    -0.10900
C261        C  0.34222037  0.34359742  0.85159245    -0.09300
C262        C  0.36566521  0.37212659  0.87538933    -0.10900
C263        C  0.35047499  0.08115706  0.86398775    -0.09300
C264        C  0.32802965  0.11146324  0.84284088    -0.10900
C265        C  0.17526149  0.35087424  0.86629467    -0.09300
C266        C  0.14750326  0.37407893  0.88878698    -0.10900
C267        C  0.37124234  0.37901580  0.62312796    -0.09300
C268        C  0.34733117  0.35180842  0.64587524    -0.10900
O269        O  0.43653593  0.89018583  0.39025896    -0.71300
O270        O  0.38629328  0.93191716  0.43896484    -0.50200
C271        C  0.39809938  0.90036338  0.40248417     0.82400
O272        O  0.07346396  0.89957169  0.10857378    -0.55900
O273        O  0.12101993  0.94630647  0.06172240    -0.49000
C274        C  0.11106006  0.91187069  0.09583696     0.74400
O275        O  0.43544810  0.89798540  0.10746901    -0.70500
O276        O  0.38376271  0.93251496  0.05757427    -0.51100
C277        C  0.39730077  0.90272436  0.09354970     0.80400
O278        O  0.08175906  0.90271931  0.40244535    -0.55600
O279        O  0.12799208  0.95472167  0.44576855    -0.48800
C280        C  0.11887887  0.91824183  0.41380492     0.77000
Zr281      Zr  0.00898083  0.92333403  0.42545999     2.54700
O282        O  0.01027175  0.83055008  0.43113295    -0.76200
O283        O  0.01462378  0.92032949  0.32939060    -0.89600
Zr284      Zr  0.00300771  0.92438387  0.08357706     2.64700
O285        O  0.50948572  0.84313349  0.10272261    -0.94600
O286        O  0.00322807  0.93299497  0.17961007    -0.76600
O287        O  0.46766976  0.91487005  0.49708098    -0.80000
O288        O  0.04328858  0.92093572  0.00489794    -2.14700
O289        O  0.07083905  0.59972330  0.38906076    -0.63400
O290        O  0.12080505  0.56546984  0.44190070    -0.47900
C291        C  0.10913991  0.59394290  0.40353568     0.75400
O292        O  0.42610477  0.60307080  0.09397481    -0.56300
O293        O  0.37976854  0.54977617  0.05303498    -0.48300
C294        C  0.38894527  0.58773256  0.08392541     0.77200
O295        O  0.06286577  0.60972517  0.09086891    -0.67700
O296        O  0.11461959  0.56353028  0.04966028    -0.46400
C297        C  0.10121637  0.59947258  0.08042324     0.78600
O298        O  0.42794590  0.57810592  0.38355549    -0.63000
O299        O  0.38115113  0.53738818  0.43760552    -0.50200
C300        C  0.39053150  0.56495038  0.39772327     0.77000
Zr301      Zr  0.50110355  0.56684639  0.41221712     2.77500
O302        O  0.49626292  0.65966979  0.40944512    -0.93800
O303        O  0.50005033  0.55847855  0.31625529    -0.74600
Zr304      Zr  0.49681125  0.57693501  0.07139318     2.70100
O305        O  0.99158868  0.66859616  0.05462801    -0.75800
O306        O  0.49363659  0.57606140  0.16764967    -0.94900
Zr307      Zr  0.42402186  0.98894059  0.49788795     2.21500
Zr308      Zr  0.08079841  0.49917173  0.99534337     2.11100
O309        O  0.03612920  0.57213908  0.98887904    -2.43600
O310        O  0.45996617  0.57347195  0.49099755    -0.75600
O311        O  0.04556843  0.49927458  0.42190163    -0.67800
O312        O  0.45695667  0.00438819  0.07547814    -2.28800
O313        O  0.46382925  0.98916006  0.41726974    -2.25000
O314        O  0.04071465  0.50528547  0.07516062    -0.68000
H315        H  0.06215195  0.89231738  0.00626909     0.82400
H316        H  0.43885611  0.00620884  0.10615739     0.83500
H317        H  0.05252728  0.60311333  0.98612931     0.85700
H318        H  0.44613609  0.98681870  0.38680513     0.83300
H319        H  0.50560362  0.92502110  0.19595227     0.46400
H320        H  0.01626434  0.56255493  0.17544384     0.45300
H321        H  0.47853809  0.67648271  0.03373619     0.45000
H322        H  0.01377124  0.67682336  0.43445919     0.43000
H323        H  0.02065281  0.53149820  0.31316679     0.46100
H324        H  0.48331441  0.93344509  0.31052647     0.40900
H325        H  0.52386504  0.81729931  0.45785349     0.47000
H326        H  0.02824379  0.82094841  0.06492805     0.43400
H327        H  0.50662502  0.66863281  0.37369401     0.48300
H328        H  0.00845304  0.88431246  0.31981668     0.47000
H329        H  0.52162383  0.84176358  0.13853778     0.47200
H330        H  0.50012850  0.61164571  0.17856938     0.47500
C331        C  0.19043464  0.68657995  0.31899585     0.01500
C332        C  0.20536507  0.83224498  0.33636404     0.01500
C333        C  0.19774737  0.83610851  0.18586806     0.01500
C334        C  0.18332458  0.68569691  0.16495909     0.01500
C335        C  0.31425072  0.66151627  0.33003663     0.01500
C336        C  0.30058818  0.65951247  0.17797509     0.01500
C337        C  0.31602817  0.81062590  0.17332340     0.01500
C338        C  0.32401627  0.79680447  0.32828918     0.01500
C339        C  0.31964044  0.82426535  0.23270940    -0.12500
C340        C  0.33728077  0.79439327  0.26987354    -0.27700
H341        H  0.30498037  0.85908570  0.24652787     0.16500
H342        H  0.35996293  0.76673270  0.25695043     0.17100
C343        C  0.30206406  0.71806491  0.18448988    -0.12500
C344        C  0.32641077  0.75388349  0.16172071    -0.27700
H345        H  0.27959610  0.73230986  0.21307569     0.16500
H346        H  0.35094027  0.74293463  0.13390488     0.17100
C347        C  0.30867385  0.63616609  0.23264083    -0.12500
C348        C  0.32635747  0.66412288  0.27176044    -0.27700
H349        H  0.28886681  0.60462923  0.24511890     0.16500
H350        H  0.35026393  0.69041885  0.26029678     0.17100
C351        C  0.33864891  0.70191247  0.36246137    -0.12500
C352        C  0.34285770  0.75373778  0.36128547    -0.27700
H353        H  0.35777559  0.68612948  0.39383512     0.16500
H354        H  0.36403352  0.76711650  0.39209788     0.17100
C355        C  0.22799415  0.67807045  0.14328018    -0.12500
C356        C  0.25585758  0.64409533  0.16230828    -0.27700
H357        H  0.24085877  0.70940954  0.12078784     0.16500
H358        H  0.24365801  0.60893600  0.17873858     0.17100
C359        C  0.19610341  0.77761522  0.18822701    -0.12500
C360        C  0.17328559  0.74337815  0.16052099    -0.27700
H361        H  0.21736917  0.76198440  0.21674890     0.16500
H362        H  0.15016631  0.75664589  0.13274556     0.17100
C363        C  0.24324021  0.85272920  0.17364892    -0.12500
C364        C  0.27159105  0.81964517  0.15263239    -0.27700
H365        H  0.25461247  0.88787558  0.19155906     0.16500
H366        H  0.25907908  0.78966055  0.12760874     0.17100
C367        C  0.21084542  0.85586349  0.28174669    -0.12500
C368        C  0.18351317  0.85187029  0.24162448    -0.27700
H369        H  0.24186538  0.86856453  0.27247345     0.16500
H370        H  0.15120280  0.84314852  0.25127514     0.17100
C371        C  0.24989069  0.82552652  0.35764326    -0.12500
C372        C  0.27656584  0.79400772  0.33090351    -0.27700
H373        H  0.26139073  0.85120241  0.38827286     0.16500
H374        H  0.26313484  0.76939770  0.30074585     0.17100
C375        C  0.17875687  0.66462451  0.22172068    -0.12500
C376        C  0.16849137  0.69302709  0.26492726    -0.27700
H377        H  0.19036250  0.62644891  0.22890218     0.16500
H378        H  0.15066827  0.72678090  0.25722597     0.17100
C379        C  0.26702477  0.66453391  0.34368523    -0.12500
C380        C  0.23639074  0.67190484  0.30788775    -0.27700
H381        H  0.25817946  0.66226419  0.38518754     0.16500
H382        H  0.24613783  0.67677735  0.26778903     0.17100
C383        C  0.19358558  0.73681592  0.35060504    -0.12500
C384        C  0.18058716  0.78232399  0.33271251    -0.27700
H385        H  0.21583599  0.73732164  0.38269537     0.16500
H386        H  0.15106880  0.78419328  0.31273251     0.17100
C387        C  0.14135684  0.62220310  0.37487172    -0.09300
C388        C  0.16625807  0.64853806  0.35045612    -0.10900
C389        C  0.16897212  0.86015521  0.14774776    -0.09300
C390        C  0.14400251  0.88412119  0.12200952    -0.10900
C391        C  0.35569748  0.61496138  0.11116914    -0.09300
C392        C  0.33067871  0.63755912  0.13913324    -0.10900
C393        C  0.13138426  0.63065398  0.10620630    -0.09300
C394        C  0.15521434  0.65646201  0.13124426    -0.10900
C395        C  0.34190433  0.84481204  0.35098429    -0.09300
C396        C  0.36574923  0.87368486  0.37350477    -0.10900
C397        C  0.35624280  0.58480889  0.36832260    -0.09300
C398        C  0.33097814  0.61243118  0.34822706    -0.10900
C399        C  0.18022640  0.86732060  0.36849850    -0.09300
C400        C  0.15317186  0.89197342  0.38973885    -0.10900
C401        C  0.36768362  0.87146157  0.12037967    -0.09300
C402        C  0.34428413  0.84377289  0.14391021    -0.10900
O403        O  0.43397873  0.88232165  0.89956715    -0.71300
O404        O  0.38196209  0.92718228  0.94156488    -0.50200
C405        C  0.39509960  0.89244703  0.90889897     0.82400
O406        O  0.08057997  0.90463611  0.60515922    -0.55900
O407        O  0.12765601  0.95199474  0.55800653    -0.49000
C408        C  0.11802610  0.91726069  0.59190043     0.74400
O409        O  0.44130937  0.88911742  0.60153860    -0.70500
O410        O  0.38950016  0.93009393  0.55732180    -0.51100
C411        C  0.40291096  0.89758094  0.59080846     0.80400
O412        O  0.07630582  0.89213593  0.90493985    -0.55600
O413        O  0.12248755  0.94402096  0.94849311    -0.48800
C414        C  0.11351099  0.90705934  0.91689932     0.77000
Zr415      Zr  0.00347477  0.91504522  0.92639412     2.54700
O416        O  0.00360285  0.82221644  0.93150732    -0.76200
O417        O  0.00769168  0.91166222  0.83016173    -0.89600
Zr418      Zr  0.00917608  0.92812439  0.58265245     2.64700
O419        O  0.51265884  0.82751729  0.57234551    -0.94600
O420        O  0.01007597  0.93490062  0.67887983    -0.76600
O421        O  0.46284709  0.91855704  0.00614769    -0.80000
O422        O  0.04927837  0.92801845  0.50351194    -2.14700
O423        O  0.06636858  0.59147782  0.88373093    -0.63400
O424        O  0.11742469  0.55460717  0.93294988    -0.47900
C425        C  0.10492592  0.58487735  0.89651142     0.75400
O426        O  0.43108832  0.60718016  0.59694889    -0.56300
O427        O  0.38395304  0.55526946  0.55558192    -0.48300
C428        C  0.39383302  0.59236122  0.58743686     0.77200
O429        O  0.06009037  0.61689639  0.60115604    -0.67700
O430        O  0.11369050  0.57359106  0.56080301    -0.46400
C431        C  0.09868618  0.60838370  0.59192214     0.78600
O432        O  0.42814955  0.58097566  0.88542780    -0.63000
O433        O  0.38095766  0.53641675  0.93556546    -0.50200
C434        C  0.39080294  0.56660732  0.89787356     0.77000
Zr435      Zr  0.50011312  0.56710980  0.91483008     2.77500
O436        O  0.49152870  0.65948864  0.91108889    -0.93800
O437        O  0.50289181  0.55735436  0.81903100    -0.74600
Zr438      Zr  0.50021322  0.58165609  0.56898903     2.70100
O439        O  0.99345554  0.67325018  0.56622263    -0.75800
O440        O  0.49961245  0.58716704  0.66525210    -0.94900
Zr441      Zr  0.41777922  0.99046901  0.99691052     2.21500
Zr442      Zr  0.08313588  0.50939047  0.50257345     2.11100
O443        O  0.03799791  0.58122311  0.49551241    -2.43600
O444        O  0.45777003  0.57029662  0.99267345    -0.75600
O445        O  0.04073479  0.48920534  0.91638914    -0.67800
O446        O  0.46428778  0.99295089  0.57644738    -2.28800
O447        O  0.45897277  0.98439430  0.91760524    -2.25000
O448        O  0.04171139  0.51035030  0.58109112    -0.68000
H449        H  0.06832869  0.89955627  0.50369578     0.82400
H450        H  0.44664895  0.99271554  0.60764332     0.83500
H451        H  0.05377232  0.61278135  0.49420097     0.85700
H452        H  0.44165733  0.97895954  0.88689829     0.83300
H453        H  0.49400287  0.95454354  0.68019817     0.46400
H454        H  0.01213028  0.55762301  0.68031393     0.45300
H455        H  0.47714686  0.67860800  0.52811239     0.45000
H456        H  0.01628517  0.66785507  0.91978385     0.43000
H457        H  0.98004955  0.52128737  0.80788220     0.46100
H458        H  0.48622051  0.92023372  0.81719565     0.40900
H459        H  0.48664860  0.81533111  0.97167131     0.47000
H460        H  0.03497319  0.82496536  0.56346406     0.43400
H461        H  0.49981618  0.66844841  0.87450339     0.48300
H462        H  0.00322997  0.87516097  0.82101704     0.47000
H463        H  0.51652434  0.81795779  0.60975862     0.47200
H464        H  0.50885479  0.62248768  0.67347974     0.47500
C465        C  0.18443444  0.68295094  0.81597307     0.01500
C466        C  0.20213576  0.82850442  0.83310310     0.01500
C467        C  0.20168134  0.84285515  0.68611437     0.01500
C468        C  0.19009056  0.69233644  0.65951686     0.01500
C469        C  0.30402450  0.65174666  0.82591124     0.01500
C470        C  0.29756964  0.66155917  0.67068383     0.01500
C471        C  0.31794234  0.81165213  0.67235850     0.01500
C472        C  0.32216728  0.78993953  0.82520383     0.01500
C473        C  0.32282574  0.82388593  0.73185205    -0.12500
C474        C  0.33821111  0.79100450  0.76778463    -0.27700
H475        H  0.30877500  0.85852917  0.74746997     0.16500
H476        H  0.35786357  0.76033121  0.75347214     0.17100
C477        C  0.29711860  0.71954601  0.67789902    -0.12500
C478        C  0.32491380  0.75446780  0.65993224    -0.27700
H479        H  0.27182777  0.73354318  0.70224528     0.16500
H480        H  0.35121511  0.74237115  0.63544582     0.17100
C481        C  0.29626833  0.63751817  0.72582058    -0.12500
C482        C  0.31695366  0.65819933  0.76761798    -0.27700
H483        H  0.27413443  0.60698438  0.73338083     0.16500
H484        H  0.34313728  0.68261466  0.75919610     0.17100
C485        C  0.31288222  0.69884747  0.86165405    -0.12500
C486        C  0.33723330  0.73985262  0.85052860    -0.27700
H487        H  0.31117035  0.68941743  0.90352638     0.16500
H488        H  0.35956735  0.74717257  0.88193194     0.17100
C489        C  0.22579968  0.67248055  0.62339443    -0.12500
C490        C  0.26005657  0.64445299  0.63650644    -0.27700
H491        H  0.21655138  0.66783424  0.58219714     0.16500
H492        H  0.26862160  0.61762378  0.60489790     0.17100
C493        C  0.19872619  0.78433961  0.68935057    -0.12500
C494        C  0.18567148  0.75047996  0.65262197    -0.27700
H495        H  0.21333895  0.76874411  0.72363118     0.16500
H496        H  0.17479990  0.76463044  0.61495810     0.17100
C497        C  0.24750204  0.85775749  0.67642887    -0.12500
C498        C  0.27438987  0.82520208  0.65186053    -0.27700
H499        H  0.26010332  0.89007112  0.69812410     0.16500
H500        H  0.26066015  0.79745467  0.62478006     0.17100
C501        C  0.20952801  0.86161562  0.78367564    -0.12500
C502        C  0.18502354  0.86126204  0.74031904    -0.27700
H503        H  0.24124042  0.87473573  0.77821651     0.16500
H504        H  0.15200131  0.85377864  0.74686821     0.17100
C505        C  0.24614963  0.81697227  0.85521449    -0.12500
C506        C  0.27419897  0.79306292  0.82279663    -0.27700
H507        H  0.25565041  0.83198819  0.89346006     0.16500
H508        H  0.26188605  0.78237310  0.78468594     0.17100
C509        C  0.19393596  0.67417856  0.71623660    -0.12500
C510        C  0.16873079  0.68585399  0.75817415    -0.27700
H511        H  0.21920766  0.64940964  0.72353346     0.16500
H512        H  0.13886964  0.70383892  0.75087934     0.17100
C513        C  0.25732735  0.64024569  0.83274170    -0.12500
C514        C  0.23140311  0.67572734  0.81420049    -0.27700
H515        H  0.24578651  0.60692701  0.85358135     0.16500
H516        H  0.24638805  0.70525148  0.79168863     0.17100
C517        C  0.18136912  0.73460419  0.84540360    -0.12500
C518        C  0.17829679  0.77915812  0.81922423    -0.27700
H519        H  0.19440528  0.73596838  0.88497292     0.16500
H520        H  0.16179079  0.77815898  0.78253478     0.17100
C521        C  0.13631971  0.61495981  0.86858518    -0.09300
C522        C  0.16030829  0.64339935  0.84538847    -0.10900
C523        C  0.17527051  0.86638107  0.64513688    -0.09300
C524        C  0.15113891  0.88991527  0.61788744    -0.10900
C525        C  0.36141262  0.61954523  0.61613164    -0.09300
C526        C  0.33525313  0.64201138  0.64239090    -0.10900
C527        C  0.12707577  0.64111965  0.61845197    -0.09300
C528        C  0.15269025  0.66763136  0.63929504    -0.10900
C529        C  0.34163070  0.83370505  0.85486252    -0.09300
C530        C  0.36415359  0.86251793  0.88000217    -0.10900
C531        C  0.35710500  0.58716123  0.86826916    -0.09300
C532        C  0.33007872  0.61090596  0.84689226    -0.10900
C533        C  0.17552410  0.85763363  0.86997907    -0.09300
C534        C  0.14801400  0.88028883  0.89307629    -0.10900
C535        C  0.37272375  0.86800629  0.61882916    -0.09300
C536        C  0.34818687  0.84235062  0.64307529    -0.10900
O537        O  0.94016742  0.38878507  0.39687691    -0.71300
O538        O  0.88788436  0.43113270  0.44125446    -0.50200
C539        C  0.90121513  0.39810871  0.40705809     0.82400
O540        O  0.57638651  0.40389430  0.10654902    -0.55900
O541        O  0.62415654  0.44993826  0.05918667    -0.49000
C542        C  0.61401870  0.41606680  0.09397171     0.74400
O543        O  0.93689896  0.39354956  0.10720659    -0.70500
O544        O  0.88503364  0.43119467  0.05994505    -0.51100
C545        C  0.89866220  0.40022110  0.09465933     0.80400
O546        O  0.58195539  0.39684275  0.40395330    -0.55600
O547        O  0.62742263  0.45034209  0.44649932    -0.48800
C548        C  0.61893193  0.41329473  0.41527737     0.77000
Zr549      Zr  0.50819718  0.41593503  0.42630944     2.54700
O550        O  0.51031107  0.32381726  0.43858439    -0.76200
O551        O  0.51302329  0.40518446  0.33059593    -0.89600
Zr552      Zr  0.50573848  0.42675709  0.08084967     2.64700
O553        O  0.00801818  0.33435772  0.09362866    -0.94600
O554        O  0.50514530  0.43875406  0.17655435    -0.76600
O555        O  0.96778030  0.41981846  0.50363969    -0.80000
O556        O  0.54638981  0.42408117  0.00243437    -2.14700
O557        O  0.56965472  0.09848154  0.38700297    -0.63400
O558        O  0.62102519  0.05963262  0.43418035    -0.47900
C559        C  0.60820551  0.09114821  0.39912886     0.75400
O560        O  0.92489577  0.10160187  0.09872846    -0.56300
O561        O  0.87796276  0.04942266  0.05736309    -0.48300
C562        C  0.88756566  0.08693995  0.08854210     0.77200
O563        O  0.56066051  0.11685875  0.08889940    -0.67700
O564        O  0.61252608  0.07072263  0.04827855    -0.46400
C565        C  0.59910439  0.10656090  0.07888324     0.78600
O566        O  0.92941142  0.08738008  0.39245311    -0.63000
O567        O  0.88301499  0.04148257  0.44247547    -0.50200
C568        C  0.89223372  0.07208169  0.40492523     0.77000
Zr569      Zr  0.00205639  0.07488259  0.42145400     2.77500
O570        O  0.99423881  0.16751333  0.42203466    -0.93800
O571        O  0.00426393  0.07208356  0.32512886    -0.74600
Zr572      Zr  0.99558672  0.07538773  0.07567299     2.70100
O573        O  0.48935887  0.17512698  0.05110936    -0.75800
O574        O  0.99392871  0.07579624  0.17194351    -0.94900
Zr575      Zr  0.92277268  0.49205571  0.49911021     2.21500
Zr576      Zr  0.57811385  0.00609997  0.99607270     2.11100
O577        O  0.53379192  0.07839518  0.98596635    -2.43600
O578        O  0.96117872  0.07540785  0.50066538    -0.75600
O579        O  0.54464887  0.99527626  0.41529167    -0.67800
O580        O  0.95894445  0.49805387  0.07718970    -2.28800
O581        O  0.96467585  0.49097849  0.42009710    -2.25000
O582        O  0.53839375  0.01283359  0.07566276    -0.68000
H583        H  0.56538550  0.39565253  0.00425841     0.82400
H584        H  0.94125269  0.49939231  0.10827546     0.83500
H585        H  0.54988625  0.10952526  0.98248140     0.85700
H586        H  0.94768084  0.48704916  0.38895642     0.83300
H587        H  0.00417336  0.41218174  0.19304414     0.46400
H588        H  0.51418253  0.06951539  0.17230303     0.45300
H589        H  0.98351594  0.17593907  0.03639501     0.45000
H590        H  0.51717188  0.17267306  0.43850285     0.43000
H591        H  0.49599612  0.03011173  0.30875116     0.46100
H592        H  0.98948241  0.43302819  0.31684874     0.40900
H593        H  0.99784019  0.31983729  0.46679045     0.47000
H594        H  0.53415752  0.32397685  0.06536947     0.43400
H595        H  0.99503488  0.17690696  0.38420188     0.48300
H596        H  0.50546316  0.36896119  0.32399474     0.47000
H597        H  0.01559637  0.33001857  0.13118542     0.47200
H598        H  0.99885532  0.11196792  0.18208593     0.47500
C599        C  0.68836067  0.18723882  0.31848150     0.01500
C600        C  0.70750863  0.33212101  0.33736068     0.01500
C601        C  0.69843635  0.33884382  0.18695564     0.01500
C602        C  0.68275853  0.18879661  0.16475895     0.01500
C603        C  0.80908609  0.16144904  0.33477245     0.01500
C604        C  0.79959933  0.16049651  0.18153989     0.01500
C605        C  0.81616064  0.31110477  0.17408086     0.01500
C606        C  0.82713262  0.29558329  0.32761866     0.01500
C607        C  0.82067434  0.32539727  0.23308091    -0.12500
C608        C  0.84032607  0.29644585  0.26914019    -0.27700
H609        H  0.80509906  0.35921889  0.24772931     0.16500
H610        H  0.86324790  0.26941025  0.25461895     0.17100
C611        C  0.80149159  0.21903611  0.18704755    -0.12500
C612        C  0.82570959  0.25409259  0.16302073    -0.27700
H613        H  0.77928018  0.23411010  0.21544250     0.16500
H614        H  0.84979066  0.24233773  0.13491409     0.17100
C615        C  0.80732401  0.13732550  0.23652407    -0.12500
C616        C  0.82261686  0.16593058  0.27692333    -0.27700
H617        H  0.78959152  0.10343370  0.24723812     0.16500
H618        H  0.84382828  0.19568065  0.26685258     0.17100
C619        C  0.82454292  0.20606443  0.36980480    -0.12500
C620        C  0.84582326  0.24838299  0.35452058    -0.27700
H621        H  0.83055985  0.19498302  0.41051052     0.16500
H622        H  0.87060107  0.25792871  0.38219104     0.17100
C623        C  0.72769849  0.17966022  0.14448855    -0.12500
C624        C  0.75482059  0.14576339  0.16554570    -0.27700
H625        H  0.74131648  0.21020120  0.12145707     0.16500
H626        H  0.74197584  0.11151602  0.18312370     0.17100
C627        C  0.69630044  0.28036339  0.18867630    -0.12500
C628        C  0.67371664  0.24670129  0.16015312    -0.27700
H629        H  0.71707022  0.26416680  0.21745593     0.16500
H630        H  0.65129299  0.26059682  0.13178784     0.17100
C631        C  0.74408565  0.35459111  0.17499911    -0.12500
C632        C  0.77193224  0.32115461  0.15351256    -0.27700
H633        H  0.75585151  0.38952850  0.19292362     0.16500
H634        H  0.75905091  0.29144837  0.12837580     0.17100
C635        C  0.71207896  0.35696624  0.28314490    -0.12500
C636        C  0.68443077  0.35374855  0.24316838    -0.27700
H637        H  0.74281598  0.37051138  0.27387644     0.16500
H638        H  0.65219720  0.34467271  0.25290076     0.17100
C639        C  0.75251059  0.32505723  0.35760674    -0.12500
C640        C  0.77913746  0.29398146  0.33008796    -0.27700
H641        H  0.76436626  0.35059682  0.38812206     0.16500
H642        H  0.76530763  0.26860706  0.30093416     0.17100
C643        C  0.67668356  0.16741177  0.22110251    -0.12500
C644        C  0.66705115  0.19578702  0.26443758    -0.27700
H645        H  0.68653634  0.12846212  0.22803358     0.16500
H646        H  0.65070215  0.23069404  0.25698598     0.17100
C647        C  0.76171064  0.15696067  0.34430833    -0.12500
C648        C  0.73321560  0.16996984  0.30771137    -0.27700
H649        H  0.75090714  0.15027353  0.38454270     0.16500
H650        H  0.74465514  0.18091573  0.26959402     0.17100
C651        C  0.69395797  0.23678464  0.35077696    -0.12500
C652        C  0.68206312  0.28283472  0.33345273    -0.27700
H653        H  0.71720900  0.23612163  0.38174232     0.16500
H654        H  0.65203788  0.28587779  0.31481681     0.17100
C655        C  0.63934053  0.12154181  0.37184750    -0.09300
C656        C  0.66345085  0.14954396  0.34871962    -0.10900
C657        C  0.67031918  0.36406239  0.14859476    -0.09300
C658        C  0.64656600  0.38860975  0.12147730    -0.10900
C659        C  0.85456799  0.11460442  0.11567925    -0.09300
C660        C  0.82960260  0.13771795  0.14319648    -0.10900
C661        C  0.62954013  0.13692909  0.10506473    -0.09300
C662        C  0.65439066  0.16096822  0.13028003    -0.10900
C663        C  0.84626803  0.34097692  0.35428532    -0.09300
C664        C  0.86999404  0.36927157  0.37794500    -0.10900
C665        C  0.85792993  0.09193847  0.37566948    -0.09300
C666        C  0.83114661  0.11660550  0.35475557    -0.10900
C667        C  0.68248990  0.36617024  0.37063985    -0.09300
C668        C  0.65405974  0.38842759  0.39174565    -0.10900
C669        C  0.86885756  0.36976090  0.12136842    -0.09300
C670        C  0.84478855  0.34292117  0.14443135    -0.10900
O671        O  0.93315051  0.38184966  0.89831595    -0.71300
O672        O  0.88203276  0.42567440  0.94336566    -0.50200
C673        C  0.89451383  0.39172500  0.90932759     0.82400
O674        O  0.57828416  0.40577184  0.60682213    -0.55900
O675        O  0.62515089  0.45116677  0.55762811    -0.49000
C676        C  0.61565903  0.41753442  0.59270699     0.74400
O677        O  0.93904822  0.39654242  0.60758585    -0.70500
O678        O  0.88804292  0.43299737  0.55808350    -0.51100
C679        C  0.90104974  0.40239236  0.59364885     0.80400
O680        O  0.57919543  0.39358954  0.90333843    -0.55600
O681        O  0.62539100  0.44601493  0.94639351    -0.48800
C682        C  0.61628536  0.40861202  0.91541550     0.77000
Zr683      Zr  0.50650839  0.41591780  0.92421446     2.54700
O684        O  0.50878458  0.32372052  0.93609988    -0.76200
O685        O  0.51100727  0.41023442  0.82808526    -0.89600
Zr686      Zr  0.50780950  0.43142286  0.58332426     2.64700
O687        O  0.00831759  0.33775398  0.59134059    -0.94600
O688        O  0.50867204  0.45047131  0.67785494    -0.76600
O689        O  0.96334263  0.41528462  0.00433223    -0.80000
O690        O  0.54777701  0.42471537  0.50444961    -2.14700
O691        O  0.56395852  0.09334281  0.87977118    -0.63400
O692        O  0.61455681  0.05918677  0.93167413    -0.47900
C693        C  0.60233987  0.08758862  0.89359511     0.75400
O694        O  0.93195140  0.10501782  0.60400292    -0.56300
O695        O  0.88474334  0.05493048  0.56037753    -0.48300
C696        C  0.89466625  0.09127268  0.59295642     0.77200
O697        O  0.56709667  0.10838809  0.59308936    -0.67700
O698        O  0.61936600  0.06457564  0.55042805    -0.46400
C699        C  0.60541012  0.09998978  0.58178725     0.78600
O700        O  0.92526481  0.08114840  0.88970955    -0.63000
O701        O  0.87814128  0.03702828  0.94024459    -0.50200
C702        C  0.88788555  0.06712025  0.90240365     0.77000
Zr703      Zr  0.99718259  0.06591236  0.91870105     2.77500
O704        O  0.99193891  0.15861829  0.91425436    -0.93800
O705        O  0.99998666  0.05620975  0.82282165    -0.74600
Zr706      Zr  0.00169042  0.07910234  0.57875734     2.70100
O707        O  0.49781679  0.16429041  0.57631948    -0.75800
O708        O  0.99726372  0.07755828  0.67488014    -0.94900
Zr709      Zr  0.91880568  0.48830616  0.99890604     2.21500
Zr710      Zr  0.58574612  0.00054145  0.49375622     2.11100
O711        O  0.54088347  0.07339617  0.49241553    -2.43600
O712        O  0.95578057  0.06992485  0.99719823    -0.75600
O713        O  0.53935654  0.99210620  0.91692934    -0.67800
O714        O  0.96032746  0.50111353  0.57915803    -2.28800
O715        O  0.95930577  0.48340304  0.91873183    -2.25000
O716        O  0.54602772  0.99958366  0.57395412    -0.68000
H717        H  0.56680291  0.39628905  0.50644368     0.82400
H718        H  0.94170032  0.50142005  0.60941744     0.83500
H719        H  0.55686535  0.10469117  0.49137347     0.85700
H720        H  0.94153760  0.47920597  0.88827815     0.83300
H721        H  0.98266532  0.46660453  0.68549542     0.46400
H722        H  0.52819256  0.04848549  0.67572390     0.45300
H723        H  0.00057781  0.18081674  0.53974359     0.45000
H724        H  0.50820807  0.17068738  0.92187619     0.43000
H725        H  0.48959569  0.01496345  0.80706563     0.46100
H726        H  0.98360587  0.42297386  0.81572601     0.40900
H727        H  0.00789923  0.31390993  0.97416605     0.47000
H728        H  0.52917173  0.32586184  0.57240206     0.43400
H729        H  0.00019649  0.16681501  0.87745087     0.48300
H730        H  0.50477329  0.37397851  0.81962772     0.47000
H731        H  0.02098481  0.33172943  0.62627306     0.47200
H732        H  0.00397312  0.11297619  0.68617797     0.47500
C733        C  0.68299459  0.18335690  0.81295212     0.01500
C734        C  0.70284671  0.32849184  0.83163038     0.01500
C735        C  0.70063650  0.34303231  0.68503887     0.01500
C736        C  0.68845969  0.19308640  0.65735080     0.01500
C737        C  0.80232963  0.15167476  0.82682611     0.01500
C738        C  0.79791968  0.16315284  0.67206249     0.01500
C739        C  0.81764734  0.31269196  0.67236808     0.01500
C740        C  0.82198280  0.28971024  0.82482130     0.01500
C741        C  0.82251589  0.32471717  0.73187496    -0.12500
C742        C  0.83815021  0.29159615  0.76758756    -0.27700
H743        H  0.80831124  0.35930764  0.74742912     0.16500
H744        H  0.85734058  0.26043380  0.75312118     0.17100
C745        C  0.79929941  0.22080338  0.68042183    -0.12500
C746        C  0.82572474  0.25581713  0.65987502    -0.27700
H747        H  0.77516234  0.23486736  0.70643838     0.16500
H748        H  0.85087531  0.24412964  0.63330202     0.17100
C749        C  0.79514874  0.13849220  0.72666179    -0.12500
C750        C  0.81664791  0.15690706  0.76886835    -0.27700
H751        H  0.77161787  0.10952029  0.73358831     0.16500
H752        H  0.84375037  0.18027787  0.76110217     0.17100
C753        C  0.81099170  0.19952702  0.86139781    -0.12500
C754        C  0.83659903  0.23916260  0.84946973    -0.27700
H755        H  0.80824220  0.19154209  0.90352498     0.16500
H756        H  0.85943177  0.24586119  0.88041504     0.17100
C757        C  0.72873155  0.18264649  0.62523855    -0.12500
C758        C  0.75957631  0.14923386  0.63798743    -0.27700
H759        H  0.72444441  0.18796281  0.58292401     0.16500
H760        H  0.76769661  0.12432405  0.60460667     0.17100
C761        C  0.69787102  0.28432980  0.68735232    -0.12500
C762        C  0.67863661  0.25075065  0.65486681    -0.27700
H763        H  0.71614483  0.26815889  0.71836452     0.16500
H764        H  0.65957170  0.26494302  0.62296642     0.17100
C765        C  0.74654646  0.35802386  0.67475713    -0.12500
C766        C  0.77370127  0.32461213  0.65194281    -0.27700
H767        H  0.75908147  0.39093548  0.69561923     0.16500
H768        H  0.76018619  0.29577222  0.62589781     0.17100
C769        C  0.71013090  0.36147971  0.78227555    -0.12500
C770        C  0.68495973  0.36142498  0.73957851    -0.27700
H771        H  0.74189636  0.37403708  0.77622371     0.16500
H772        H  0.65193910  0.35454825  0.74689257     0.17100
C773        C  0.74649982  0.31687845  0.85394145    -0.12500
C774        C  0.77422207  0.29234484  0.82200996    -0.27700
H775        H  0.75614921  0.33243613  0.89191254     0.16500
H776        H  0.76185612  0.28063630  0.78428726     0.17100
C777        C  0.69014533  0.17200034  0.71330300    -0.12500
C778        C  0.66653034  0.18674789  0.75554657    -0.27700
H779        H  0.71364877  0.14419008  0.72031433     0.16500
H780        H  0.63797032  0.20772315  0.74849146     0.17100
C781        C  0.75536658  0.14083108  0.83234645    -0.12500
C782        C  0.72983703  0.17497063  0.81040733    -0.27700
H783        H  0.74325405  0.10932474  0.85555646     0.16500
H784        H  0.74508685  0.20336572  0.78658431     0.17100
C785        C  0.68122754  0.23474646  0.84298514    -0.12500
C786        C  0.67874072  0.27952544  0.81733954    -0.27700
H787        H  0.69435081  0.23539042  0.88251820     0.16500
H788        H  0.66297713  0.27880902  0.78025462     0.17100
C789        C  0.63393345  0.11664553  0.86525642    -0.09300
C790        C  0.65842767  0.14444078  0.84229414    -0.10900
C791        C  0.67362637  0.36688567  0.64497586    -0.09300
C792        C  0.64888608  0.39031573  0.61854558    -0.10900
C793        C  0.86202369  0.11918820  0.62006387    -0.09300
C794        C  0.83526585  0.14229667  0.64444515    -0.10900
C795        C  0.63416855  0.13392972  0.60668536    -0.09300
C796        C  0.65642639  0.16336879  0.62993366    -0.10900
C797        C  0.84104442  0.33319681  0.85529688    -0.09300
C798        C  0.86318804  0.36216053  0.88075534    -0.10900
C799        C  0.85418186  0.08760466  0.87255978    -0.09300
C800        C  0.82760713  0.11109286  0.84991588    -0.10900
C801        C  0.67700519  0.35778714  0.86872493    -0.09300
C802        C  0.65040932  0.38127782  0.89222982    -0.10900
C803        C  0.87095479  0.37163028  0.62005722    -0.09300
C804        C  0.84697929  0.34457191  0.64333715    -0.10900
O805        O  0.93872574  0.89652252  0.39612493    -0.71300
O806        O  0.88795459  0.93751183  0.44448836    -0.50200
C807        C  0.90014057  0.90613633  0.40791305     0.82400
O808        O  0.57410964  0.91581687  0.11116461    -0.55900
O809        O  0.62075081  0.95801564  0.05857829    -0.49000
C810        C  0.61148313  0.92742009  0.09666502     0.74400
O811        O  0.93473673  0.89341051  0.10880899    -0.70500
O812        O  0.88393200  0.93287547  0.06146406    -0.51100
C813        C  0.89671554  0.90131205  0.09620180     0.80400
O814        O  0.57965309  0.89919856  0.38743614    -0.55600
O815        O  0.62676053  0.94909430  0.43191027    -0.48800
C816        C  0.61708145  0.91472754  0.39732861     0.77000
Zr817      Zr  0.50758239  0.91656856  0.41736316     2.54700
O818        O  0.51023768  0.82380904  0.42365502    -0.76200
O819        O  0.50864223  0.91465520  0.32098585    -0.89600
Zr820      Zr  0.50272441  0.93384234  0.08367384     2.64700
O821        O  0.00422856  0.83140059  0.08746210    -0.94600
O822        O  0.49749299  0.95647340  0.17725131    -0.76600
O823        O  0.96857176  0.92160805  0.50472328    -0.80000
O824        O  0.54321742  0.92592648  0.00521178    -2.14700
O825        O  0.57236277  0.59083124  0.38206868    -0.63400
O826        O  0.62176373  0.55563327  0.43508589    -0.47900
C827        C  0.61059043  0.58339914  0.39616651     0.75400
O828        O  0.92435706  0.60226761  0.09457503    -0.56300
O829        O  0.87737303  0.54882692  0.05509939    -0.48300
C830        C  0.88682455  0.58694829  0.08605165     0.77200
O831        O  0.56380324  0.60992054  0.09757140    -0.67700
O832        O  0.61657270  0.56584601  0.05614818    -0.46400
C833        C  0.60230965  0.60044451  0.08793802     0.78600
O834        O  0.92760902  0.58208260  0.38755129    -0.63000
O835        O  0.88072422  0.53640074  0.43708189    -0.50200
C836        C  0.89036459  0.56697681  0.39977513     0.77000
Zr837      Zr  0.00023166  0.57033889  0.41598702     2.77500
O838        O  0.99134811  0.66260725  0.41201791    -0.93800
O839        O  0.00276178  0.56171741  0.31999733    -0.74600
Zr840      Zr  0.99486813  0.57656334  0.06736251     2.70100
O841        O  0.49329461  0.66970292  0.06713376    -0.75800
O842        O  0.99235431  0.58316693  0.16347382    -0.94900
Zr843      Zr  0.92507814  0.99548246  0.50387110     2.21500
Zr844      Zr  0.58324282  0.50346541  0.99890268     2.11100
O845        O  0.53898589  0.57659838  0.99364653    -2.43600
O846        O  0.95724530  0.57258264  0.49332421    -0.75600
O847        O  0.54507993  0.49420199  0.41858268    -0.67800
O848        O  0.95870031  0.99716544  0.08163493    -2.28800
O849        O  0.96551092  0.99609118  0.42372824    -2.25000
O850        O  0.54222918  0.50562805  0.07802878    -0.68000
H851        H  0.56284456  0.89819271  0.00872328     0.82400
H852        H  0.94053512  0.99784888  0.11230148     0.83500
H853        H  0.55521519  0.60781978  0.99221260     0.85700
H854        H  0.94807423  0.99347841  0.39298221     0.83300
H855        H  0.97954295  0.95594993  0.18821597     0.46400
H856        H  0.51835436  0.55610840  0.17817924     0.45300
H857        H  0.00723817  0.67466027  0.02132527     0.45000
H858        H  0.51822332  0.67216711  0.43362511     0.43000
H859        H  0.51463061  0.52584419  0.30862695     0.46100
H860        H  0.99020167  0.93970571  0.31690998     0.40900
H861        H  0.99431933  0.82286217  0.46384067     0.47000
H862        H  0.53194912  0.83071480  0.07869896     0.43400
H863        H  0.99982406  0.67150810  0.37548786     0.48300
H864        H  0.50275679  0.87857385  0.31136481     0.47000
H865        H  0.01293577  0.82377904  0.12399610     0.47200
H866        H  0.00036295  0.61899537  0.17143527     0.47500
C867        C  0.69101961  0.68482141  0.32802891     0.01500
C868        C  0.70545109  0.81981053  0.33331942     0.01500
C869        C  0.69344030  0.83647547  0.17788689     0.01500
C870        C  0.68000479  0.68975357  0.17514175     0.01500
C871        C  0.81552150  0.66645284  0.33482725     0.01500
C872        C  0.79870972  0.66193750  0.18231826     0.01500
C873        C  0.81420191  0.81247351  0.17663435     0.01500
C874        C  0.82739678  0.80194057  0.33124002     0.01500
C875        C  0.81694298  0.82621484  0.23603173    -0.12500
C876        C  0.83879834  0.79963217  0.27227576    -0.27700
H877        H  0.79639859  0.85555212  0.25162051     0.16500
H878        H  0.86312511  0.77409638  0.25860328     0.17100
C879        C  0.80036566  0.72054876  0.18810120    -0.12500
C880        C  0.82493957  0.75588554  0.16556706    -0.27700
H881        H  0.77704054  0.73553409  0.21555674     0.16500
H882        H  0.84986133  0.74465476  0.13843586     0.17100
C883        C  0.80718886  0.64021562  0.23765912    -0.12500
C884        C  0.82555395  0.66906121  0.27587910    -0.27700
H885        H  0.78795310  0.60846561  0.25094833     0.16500
H886        H  0.84786120  0.69709551  0.26334272     0.17100
C887        C  0.84155858  0.70673081  0.36572073    -0.12500
C888        C  0.84736829  0.75850059  0.36304336    -0.27700
H889        H  0.86143800  0.69058154  0.39610360     0.16500
H890        H  0.87015606  0.77157098  0.39204452     0.17100
C891        C  0.72490441  0.68347339  0.15290907    -0.12500
C892        C  0.75305392  0.64779380  0.16859025    -0.27700
H893        H  0.73800717  0.71472802  0.13107074     0.16500
H894        H  0.74111162  0.61212297  0.18419706     0.17100
C895        C  0.68525219  0.78438932  0.15130918    -0.12500
C896        C  0.66452095  0.74559204  0.17417037    -0.27700
H897        H  0.69844164  0.77756123  0.11228937     0.16500
H898        H  0.63845433  0.75610608  0.19954449     0.17100
C899        C  0.74004922  0.85093597  0.17586164    -0.12500
C900        C  0.77041001  0.82106001  0.15414573    -0.27700
H901        H  0.74902022  0.88329279  0.20047718     0.16500
H902        H  0.76221563  0.79502661  0.12250405     0.17100
C903        C  0.70219280  0.80842423  0.27338836    -0.12500
C904        C  0.68170433  0.83749700  0.23733654    -0.27700
H905        H  0.72267578  0.77905944  0.25750849     0.16500
H906        H  0.66024717  0.86697343  0.25100663     0.17100
C907        C  0.75117352  0.83334386  0.34430723    -0.12500
C908        C  0.78046133  0.79694870  0.33618024    -0.27700
H909        H  0.76018822  0.87201305  0.35548894     0.16500
H910        H  0.76951429  0.76108988  0.32198635     0.17100
C911        C  0.67759888  0.66944798  0.23190550    -0.12500
C912        C  0.67008299  0.69786693  0.27646259    -0.27700
H913        H  0.68904731  0.63092034  0.23776372     0.16500
H914        H  0.65349181  0.73352027  0.27557241     0.17100
C915        C  0.76872385  0.66847833  0.35099715    -0.12500
C916        C  0.73764997  0.67708513  0.31642022    -0.27700
H917        H  0.76059018  0.66367412  0.39247454     0.16500
H918        H  0.74691949  0.68524854  0.27659162     0.17100
C919        C  0.68476144  0.72642040  0.37045207    -0.12500
C920        C  0.69299227  0.77748335  0.37250016    -0.27700
H921        H  0.67420188  0.71184100  0.40859094     0.16500
H922        H  0.69028465  0.79254428  0.41285304     0.17100
C923        C  0.64360037  0.60994830  0.36779728    -0.09300
C924        C  0.66938663  0.63825227  0.34796201    -0.10900
C925        C  0.66869678  0.87518873  0.14903678    -0.09300
C926        C  0.64486110  0.90215339  0.12468098    -0.10900
C927        C  0.85358719  0.61465539  0.11479670    -0.09300
C928        C  0.82861212  0.63812946  0.14299258    -0.10900
C929        C  0.63124700  0.63137483  0.11585009    -0.09300
C930        C  0.65299045  0.65846492  0.14231837    -0.10900
C931        C  0.84498959  0.85007028  0.35440607    -0.09300
C932        C  0.86823701  0.87904882  0.37806976    -0.10900
C933        C  0.85656560  0.58821429  0.37115609    -0.09300
C934        C  0.83218110  0.61716844  0.35177087    -0.10900
C935        C  0.67782762  0.86314435  0.34913514    -0.09300
C936        C  0.65093128  0.89003096  0.36881859    -0.10900
C937        C  0.86636393  0.87184855  0.12341437    -0.09300
C938        C  0.84276128  0.84512975  0.14755318    -0.10900
O939        O  0.93285944  0.88839299  0.89878854    -0.71300
O940        O  0.88209415  0.93145967  0.94517704    -0.50200
C941        C  0.89433822  0.89886686  0.90993717     0.82400
O942        O  0.58025760  0.90011758  0.60062326    -0.55900
O943        O  0.62749428  0.94657815  0.55278371    -0.49000
C944        C  0.61774416  0.91318025  0.58825578     0.74400
O945        O  0.94070895  0.89638048  0.60862150    -0.70500
O946        O  0.88943075  0.93617742  0.56243135    -0.51100
C947        C  0.90241113  0.90404859  0.59669713     0.80400
O948        O  0.57725618  0.89361151  0.90613119    -0.55600
O949        O  0.62200896  0.95011351  0.94576003    -0.48800
C950        C  0.61397854  0.91140741  0.91636690     0.77000
Zr951      Zr  0.50361893  0.91308013  0.92729665     2.54700
O952        O  0.50610353  0.82121304  0.94167045    -0.76200
O953        O  0.50939932  0.90016519  0.83199189    -0.89600
Zr954      Zr  0.50933714  0.92063186  0.57408238     2.64700
O955        O  0.01046212  0.83505640  0.58528396    -0.94600
O956        O  0.51046921  0.92385422  0.67036190    -0.76600
O957        O  0.96275489  0.91634051  0.00544331    -0.80000
O958        O  0.54931143  0.92066766  0.49461940    -2.14700
O959        O  0.56987094  0.59757532  0.88727303    -0.63400
O960        O  0.62027375  0.56004162  0.93695172    -0.47900
C961        C  0.60829305  0.59048377  0.90021426     0.75400
O962        O  0.92484223  0.60622194  0.59351681    -0.56300
O963        O  0.87960361  0.55097135  0.55336556    -0.48300
C964        C  0.88811253  0.58967869  0.58369516     0.77200
O965        O  0.56814266  0.61501298  0.59029059    -0.67700
O966        O  0.61946082  0.56847122  0.54908038    -0.46400
C967        C  0.60625569  0.60489115  0.57901402     0.78600
O968        O  0.92303913  0.57498488  0.88401687    -0.63000
O969        O  0.87632175  0.53236283  0.93665710    -0.50200
C970        C  0.88568245  0.56134341  0.89782634     0.77000
Zr971      Zr  0.99616016  0.56160284  0.91110839     2.77500
O972        O  0.99050236  0.65412078  0.90370726    -0.93800
O973        O  0.99848847  0.55085608  0.81528875    -0.74600
Zr974      Zr  0.99535608  0.58053040  0.57264526     2.70100
O975        O  0.49616849  0.67391570  0.55826463    -0.75800
O976        O  0.98967966  0.58076888  0.66877286    -0.94900
Zr977      Zr  0.91958445  0.99050203  0.00221719     2.21500
Zr978      Zr  0.58364022  0.50421922  0.49839963     2.11100
O979        O  0.54071030  0.57789379  0.49025632    -2.43600
O980        O  0.95458618  0.56779983  0.98968459    -0.75600
O981        O  0.54417858  0.49440919  0.91919504    -0.67800
O982        O  0.96475444  0.00068327  0.58293123    -2.28800
O983        O  0.96008988  0.98792487  0.92231844    -2.25000
O984        O  0.54476203  0.50988649  0.57862024    -0.68000
H985        H  0.56873216  0.89246039  0.49437824     0.82400
H986        H  0.94677171  0.00059108  0.61376743     0.83500
H987        H  0.55745589  0.60849438  0.48719423     0.85700
H988        H  0.94265756  0.98509408  0.89154210     0.83300
H989        H  0.98778165  0.95966942  0.68809855     0.46400
H990        H  0.52308478  0.56532650  0.67627374     0.45300
H991        H  0.98753041  0.67971009  0.52855257     0.45000
H992        H  0.51406238  0.67360821  0.93342919     0.43000
H993        H  0.52120611  0.52743196  0.81266969     0.46100
H994        H  0.98209187  0.92894470  0.81814305     0.40900
H995        H  0.98422224  0.81445706  0.96110620     0.47000
H996        H  0.53964516  0.81921850  0.55494497     0.43400
H997        H  0.99397541  0.66067887  0.86540375     0.48300
H998        H  0.50115199  0.86405922  0.82612065     0.47000
H999        H  0.01838816  0.82700010  0.62201012     0.47200
H1000       H  0.99914477  0.61527899  0.67986093     0.47500
C1001       C  0.68808292  0.68687604  0.81695395     0.01500
C1002       C  0.70387107  0.83180037  0.83796847     0.01500
C1003       C  0.70080063  0.84115016  0.68748228     0.01500
C1004       C  0.68578138  0.69167711  0.66313362     0.01500
C1005       C  0.81122316  0.66033452  0.83137753     0.01500
C1006       C  0.80127534  0.66226826  0.67866206     0.01500
C1007       C  0.81906153  0.81355265  0.67713256     0.01500
C1008       C  0.82235226  0.79522332  0.83224425     0.01500
C1009       C  0.82171161  0.82574361  0.73713515    -0.12500
C1010       C  0.83721665  0.79401566  0.77426905    -0.27700
H1011       H  0.80717418  0.86049977  0.75145750     0.16500
H1012       H  0.85950320  0.76582191  0.76152344     0.17100
C1013       C  0.80374641  0.72077755  0.68651841    -0.12500
C1014       C  0.82860515  0.75661943  0.66458404    -0.27700
H1015       H  0.78102236  0.73500602  0.71481019     0.16500
H1016       H  0.85311788  0.74560736  0.63678387     0.17100
C1017       C  0.80730881  0.63737804  0.73306507    -0.12500
C1018       C  0.82462024  0.66381618  0.77353726    -0.27700
H1019       H  0.78638133  0.60636508  0.74399593     0.16500
H1020       H  0.84941786  0.68947602  0.76359883     0.17100
C1021       C  0.83552792  0.69961947  0.86523656    -0.12500
C1022       C  0.84027818  0.75139133  0.86502364    -0.27700
H1023       H  0.85401291  0.68293405  0.89671934     0.16500
H1024       H  0.86113270  0.76397345  0.89652396     0.17100
C1025       C  0.73039255  0.68401706  0.64241187    -0.12500
C1026       C  0.75702218  0.64851792  0.66075451    -0.27700
H1027       H  0.74414132  0.71582316  0.62153277     0.16500
H1028       H  0.74409489  0.61258839  0.67436576     0.17100
C1029       C  0.69851367  0.78267672  0.68933540    -0.12500
C1030       C  0.67612720  0.74939701  0.65998677    -0.27700
H1031       H  0.71874019  0.76619366  0.71857537     0.16500
H1032       H  0.65400243  0.76355320  0.63139154     0.17100
C1033       C  0.74679101  0.85698316  0.67770493    -0.12500
C1034       C  0.77501423  0.82415302  0.65587551    -0.27700
H1035       H  0.75833157  0.89097927  0.69766908     0.16500
H1036       H  0.76249552  0.79545490  0.62931447     0.17100
C1037       C  0.71100981  0.85808096  0.78468960    -0.12500
C1038       C  0.68493426  0.85654538  0.74289669    -0.27700
H1039       H  0.74260804  0.86998460  0.77723863     0.16500
H1040       H  0.65222978  0.84831184  0.75063958     0.17100
C1041       C  0.74777715  0.82331507  0.86061159    -0.12500
C1042       C  0.77483220  0.79285901  0.83304727    -0.27700
H1043       H  0.75867842  0.84706123  0.89318887     0.16500
H1044       H  0.76185957  0.77025151  0.80098493     0.17100
C1045       C  0.67967155  0.66838278  0.71863317    -0.12500
C1046       C  0.66728613  0.69455653  0.76227437    -0.27700
H1047       H  0.69147020  0.63016199  0.72499468     0.16500
H1048       H  0.64899843  0.72797080  0.75469187     0.17100
C1049       C  0.76389965  0.66401908  0.84370853    -0.12500
C1050       C  0.73428717  0.67296231  0.80711044    -0.27700
H1051       H  0.75408899  0.66047134  0.88477098     0.16500
H1052       H  0.74520384  0.67974170  0.76777666     0.17100
C1053       C  0.69042591  0.73648773  0.84949831    -0.12500
C1054       C  0.67907619  0.78244632  0.83097133    -0.27700
H1055       H  0.71126614  0.73607603  0.88309812     0.16500
H1056       H  0.65050956  0.78555653  0.80912273     0.17100
C1057       C  0.64003470  0.61985069  0.87162158    -0.09300
C1058       C  0.66395478  0.64763309  0.84720615    -0.10900
C1059       C  0.67393508  0.86545383  0.64700958    -0.09300
C1060       C  0.65053777  0.88799803  0.61761109    -0.10900
C1061       C  0.85490935  0.61655841  0.61107091    -0.09300
C1062       C  0.83110098  0.63987760  0.63998093    -0.10900
C1063       C  0.63614259  0.63697675  0.60276265    -0.09300
C1064       C  0.65889282  0.66365236  0.62780555    -0.10900
C1065       C  0.83963521  0.84266549  0.85678601    -0.09300
C1066       C  0.86257383  0.87159249  0.88063782    -0.10900
C1067       C  0.85145289  0.58214234  0.86908558    -0.09300
C1068       C  0.82675364  0.61055637  0.84910987    -0.10900
C1069       C  0.67771333  0.86469474  0.87129859    -0.09300
C1070       C  0.64925895  0.88643382  0.89306880    -0.10900
C1071       C  0.87204953  0.87372444  0.62420422    -0.09300
C1072       C  0.84829214  0.84663931  0.64838538    -0.10900
loop_ 
_geom_bond_atom_site_label_1 
_geom_bond_atom_site_label_2 
_geom_bond_distance 
_geom_bond_site_symmetry_2 
_ccdc_geom_bond_type 
O1            C3   1.294       .  A
O1         Zr549   2.474       .  S
O2            C3   1.287       .  A
O2          Zr39   2.437       .  S
C3          C128   1.452       .  S
O4            C6   1.286       .  A
O4          Zr16   2.448       .  S
O5            C6   1.295       .  A
O5         Zr308   2.476   1_554  S
C6          C122   1.462       .  S
O7            C9   1.282       .  A
O7         Zr552   2.420       .  S
O8            C9   1.285       .  A
O8         Zr173   2.422   1_554  S
C9          C133   1.423       .  S
O10          C12   1.293       .  A
O10         Zr13   2.468       .  S
O11          C12   1.279       .  A
O11        Zr442   2.392       .  S
C12         C132   1.428       .  S
Zr13        O537   2.483   1_455  S
Zr13         O14   2.435       .  S
Zr13         O15   2.435       .  S
Zr13        O555   2.376   1_455  S
Zr13        O154   2.371       .  S
Zr13        O311   2.376       .  S
Zr13        O581   2.363   1_455  S
O14         H593   0.990   1_455  S
O15          H60   0.990       .  S
O15         H592   0.990   1_455  S
Zr16        O543   2.418   1_455  S
Zr16         O18   2.435       .  S
Zr16        O553   2.438       .  S
Zr16         O20   2.363       .  S
Zr16        O689   2.380   1_455  S
Zr16        O580   2.379   1_455  S
Zr16        O314   2.367       .  S
O17        Zr552   2.437       .  S
O17          H61   0.990       .  S
O17         H594   0.990       .  S
O18         H587   0.990       .  S
O19         Zr39   2.391       .  S
O19        Zr549   2.380       .  S
O19        Zr686   2.380       .  S
O20        Zr147   2.373   1_554  S
O20        Zr308   2.382   1_554  S
O20          H47   0.964       .  S
O21          C23   1.293       .  A
O21        Zr569   2.474       .  S
O22          C23   1.290       .  A
O22        Zr174   2.449       .  S
C23         C119   1.460       .  S
O24          C26   1.282       .  A
O24         Zr36   2.421       .  S
O25          C26   1.294       .  A
O25        Zr441   2.469   1_544  S
C26         C123   1.446       .  S
O27          C29   1.283       .  A
O27        Zr572   2.424   1_455  S
O28          C29   1.284       .  A
O28         Zr40   2.417       .  S
C29         C125   1.421       .  S
O30          C32   1.294       .  A
O30         Zr33   2.470       .  S
O31          C32   1.281       .  A
O31        Zr307   2.403   1_545  S
C32         C129   1.434       .  S
Zr33        O557   2.464       .  S
Zr33         O34   2.435       .  S
Zr33         O35   2.435       .  S
Zr33         O42   2.376       .  S
Zr33        O711   2.371       .  S
Zr33        O313   2.363   1_545  S
Zr33        O579   2.375   1_545  S
O34          H59   0.990       .  S
O34         H590   0.990       .  S
O35         H591   0.990       .  S
Zr36        O563   2.431       .  S
Zr36         O38   2.434       .  S
Zr36        O573   2.436       .  S
Zr36        O176   2.378   1_554  S
Zr36        O577   2.366   1_554  S
Zr36        O582   2.373       .  S
Zr36        O312   2.374       .  S
O37        Zr572   2.435       .  S
O37         H589   0.990       .  S
O38          H62   0.990       .  S
O38         H588   0.990       .  S
Zr39        O142   2.402       .  S
Zr39        O427   2.474       .  S
Zr39        O299   2.395       .  S
Zr39         O45   2.393       .  S
Zr39        O310   2.379       .  S
Zr39        O178   2.378       .  S
Zr40        O273   2.461   1_545  S
Zr40        O413   2.404   1_544  S
Zr40        O156   2.430   1_554  S
Zr40         O41   2.390   1_554  S
Zr40         O46   2.380       .  S
Zr40        O288   2.382   1_545  S
Zr40        O177   2.393   1_544  S
O41        Zr703   2.372   1_455  S
O41        Zr572   2.366   1_456  S
O41          H49   0.964       .  S
O42        Zr170   2.368       .  S
O42        Zr307   2.378   1_545  S
O43        Zr281   2.378   1_545  S
O43        Zr569   2.375       .  S
O43        Zr174   2.393       .  S
O44        Zr552   2.376       .  S
O44        Zr304   2.364       .  S
O44        Zr173   2.380   1_554  S
O44          H48   0.965       .  S
O45        Zr549   2.368       .  S
O45        Zr301   2.360       .  S
O45          H50   0.963       .  S
O46        Zr284   2.372   1_545  S
O46        Zr572   2.381   1_455  S
H51         O554   0.990       .  S
H52         O574   0.990   1_455  S
H53         O573   0.990       .  S
H54         O570   0.990   1_455  S
H55         O571   0.990   1_655  S
H56         O551   0.990       .  S
H57         O550   0.990       .  S
H58         O553   0.990       .  S
C63         C108   1.555       .  S
C63         C112   1.544       .  S
C63         C115   1.535       .  S
C63         C120   1.493       .  S
C64          C99   1.533       .  S
C64         C103   1.543       .  S
C64         C116   1.529       .  S
C64         C131   1.460       .  S
C65          C91   1.532       .  S
C65          C95   1.552       .  S
C65         C100   1.536       .  S
C65         C121   1.497       .  S
C66          C87   1.537       .  S
C66          C92   1.550       .  S
C66         C107   1.548       .  S
C66         C126   1.454       .  S
C67          C80   1.523       .  S
C67          C83   1.544       .  S
C67         C111   1.549       .  S
C67         C130   1.472       .  S
C68          C75   1.540       .  S
C68          C79   1.543       .  S
C68          C88   1.539       .  S
C68         C124   1.481       .  S
C69          C71   1.548       .  S
C69          C76   1.546       .  S
C69          C96   1.543       .  S
C69         C134   1.457       .  S
C70          C72   1.538       .  S
C70          C84   1.541       .  S
C70         C104   1.525       .  S
C70         C127   1.493       .  S
C71          C72   1.359       .  D
C71          H73   1.078       .  S
C72          H74   1.074       .  S
C75          C76   1.348       .  D
C75          H77   1.079       .  S
C76          H78   1.086       .  S
C79          C80   1.353       .  D
C79          H81   1.088       .  S
C80          H82   1.068       .  S
C83          C84   1.363       .  D
C83          H85   1.093       .  S
C84          H86   1.093       .  S
C87          C88   1.355       .  D
C87          H89   1.082       .  S
C88          H90   1.084       .  S
C91          C92   1.350       .  D
C91          H93   1.082       .  S
C92          H94   1.086       .  S
C95          C96   1.358       .  D
C95          H97   1.084       .  S
C96          H98   1.081       .  S
C99         C100   1.354       .  D
C99         H101   1.072       .  S
C100        H102   1.086       .  S
C103        C104   1.360       .  D
C103        H105   1.086       .  S
C104        H106   1.084       .  S
C107        C108   1.351       .  D
C107        H109   1.084       .  S
C108        H110   1.073       .  S
C111        C112   1.356       .  D
C111        H113   1.087       .  S
C112        H114   1.067       .  S
C115        C116   1.349       .  D
C115        H117   1.086       .  S
C116        H118   1.080       .  S
C119        C120   1.221       .  T
C121        C122   1.222       .  T
C123        C124   1.213       .  T
C125        C126   1.198       .  T
C127        C128   1.216       .  T
C129        C130   1.206       .  T
C131        C132   1.202       .  T
C133        C134   1.200       .  T
O135        C137   1.295       .  A
O135       Zr683   2.482       .  S
O136        C137   1.285       .  A
O136       Zr173   2.429       .  S
C137        C262   1.453       .  S
O138        C140   1.284       .  A
O138       Zr150   2.434       .  S
O139        C140   1.292       .  A
O139       Zr442   2.459       .  S
C140        C256   1.447       .  S
O141        C143   1.281       .  A
O141       Zr686   2.414       .  S
O142        C143   1.281       .  A
C143        C267   1.411       .  S
O144        C146   1.292       .  A
O144       Zr147   2.468       .  S
O145        C146   1.285       .  A
O145       Zr308   2.422       .  S
C146        C266   1.444       .  S
Zr147       O671   2.472   1_455  S
Zr147       O148   2.434       .  S
Zr147       O149   2.435       .  S
Zr147       O689   2.377   1_456  S
Zr147       O445   2.377       .  S
Zr147       O715   2.371   1_455  S
O148        H727   0.990       .  S
O149        H726   0.990   1_455  S
O149        H194   0.990       .  S
Zr150       O677   2.418   1_455  S
Zr150       O687   2.437       .  S
Zr150       O152   2.435       .  S
Zr150       O154   2.365       .  S
Zr150       O555   2.376   1_455  S
Zr150       O714   2.375   1_455  S
Zr150       O448   2.373       .  S
O151       Zr686   2.436       .  S
O151        H728   0.990       .  S
O151        H195   0.990       .  S
O152        H721   0.990   1_455  S
O153       Zr683   2.372   1_554  S
O153       Zr552   2.380       .  S
O153       Zr173   2.387   1_554  S
O154       Zr442   2.390       .  S
O154        H181   0.964       .  S
O155        C157   1.289       .  A
O155       Zr703   2.451   1_455  S
O156        C157   1.286       .  A
C157        C253   1.440       .  S
O158        C160   1.281       .  A
O158       Zr170   2.422       .  S
O159        C160   1.294       .  A
O159       Zr307   2.471   1_545  S
C160        C257   1.451       .  S
O161        C163   1.281       .  A
O161       Zr706   2.418       .  S
O162        C163   1.285       .  A
O162       Zr174   2.424       .  S
C163        C259   1.424       .  S
O164        C166   1.292       .  A
O164       Zr167   2.466       .  S
O165        C166   1.281       .  A
O165       Zr441   2.406   1_545  S
C166        C263   1.433       .  S
Zr167       O691   2.469       .  S
Zr167       O168   2.436       .  S
Zr167       O169   2.435       .  S
Zr167       O577   2.374       .  S
Zr167       O176   2.379       .  S
Zr167       O447   2.369   1_545  S
Zr167       O713   2.377   1_545  S
O168        H724   0.990       .  S
O168        H193   0.990       .  S
O169        H725   0.990       .  S
Zr170       O697   2.399       .  S
Zr170       O707   2.433       .  S
Zr170       O172   2.435       .  S
Zr170       O711   2.371       .  S
Zr170       O716   2.378   1_545  S
Zr170       O446   2.363   1_545  S
O171       Zr706   2.433       .  S
O171        H723   0.990       .  S
O172        H722   0.990       .  S
O172        H196   0.990       .  S
Zr173       O293   2.459   1_556  S
Zr173       O433   2.403       .  S
Zr173       O444   2.382       .  S
Zr173       O179   2.390       .  S
Zr174       O407   2.454   1_545  S
Zr174       O279   2.392   1_545  S
Zr174       O422   2.392   1_545  S
Zr174       O175   2.387       .  S
Zr174       O180   2.381       .  S
O175       Zr569   2.379       .  S
O175       Zr706   2.371       .  S
O175        H183   0.968       .  S
O176       Zr441   2.389   1_545  S
O177       Zr415   2.376       .  S
O177       Zr703   2.377   1_465  S
O178       Zr686   2.374       .  S
O178       Zr438   2.366       .  S
O178        H182   0.965       .  S
O179       Zr683   2.361       .  S
O179       Zr435   2.367       .  S
O179        H184   0.965       .  S
O180       Zr418   2.375   1_545  S
O180       Zr706   2.373       .  S
H185        O688   0.990       .  S
H186        O708   0.990   1_455  S
H187        O707   0.990       .  S
H188        O704   0.990   1_455  S
H189        O705   0.990   1_455  S
H190        O685   0.990       .  S
H191        O684   0.990       .  S
H192        O687   0.990       .  S
C197        C242   1.545       .  S
C197        C246   1.555       .  S
C197        C249   1.549       .  S
C197        C254   1.475       .  S
C198        C233   1.533       .  S
C198        C237   1.548       .  S
C198        C250   1.541       .  S
C198        C265   1.477       .  S
C199        C225   1.518       .  S
C199        C229   1.554       .  S
C199        C234   1.534       .  S
C199        C255   1.482       .  S
C200        C221   1.533       .  S
C200        C226   1.540       .  S
C200        C241   1.537       .  S
C200        C260   1.460       .  S
C201        C214   1.524       .  S
C201        C217   1.542       .  S
C201        C245   1.536       .  S
C201        C264   1.471       .  S
C202        C209   1.543       .  S
C202        C213   1.544       .  S
C202        C222   1.539       .  S
C202        C258   1.484       .  S
C203        C205   1.543       .  S
C203        C210   1.552       .  S
C203        C230   1.544       .  S
C203        C268   1.445       .  S
C204        C206   1.533       .  S
C204        C218   1.546       .  S
C204        C238   1.533       .  S
C204        C261   1.492       .  S
C205        C206   1.358       .  D
C205        H207   1.079       .  S
C206        H208   1.076       .  S
C209        C210   1.345       .  D
C209        H211   1.072       .  S
C210        H212   1.086       .  S
C213        C214   1.349       .  D
C213        H215   1.082       .  S
C214        H216   1.075       .  S
C217        C218   1.364       .  D
C217        H219   1.092       .  S
C218        H220   1.092       .  S
C221        C222   1.353       .  D
C221        H223   1.083       .  S
C222        H224   1.088       .  S
C225        C226   1.346       .  D
C225        H227   1.076       .  S
C226        H228   1.086       .  S
C229        C230   1.364       .  D
C229        H231   1.083       .  S
C230        H232   1.083       .  S
C233        C234   1.350       .  D
C233        H235   1.075       .  S
C234        H236   1.089       .  S
C237        C238   1.361       .  D
C237        H239   1.086       .  S
C238        H240   1.086       .  S
C241        C242   1.345       .  D
C241        H243   1.075       .  S
C242        H244   1.087       .  S
C245        C246   1.359       .  D
C245        H247   1.077       .  S
C246        H248   1.084       .  S
C249        C250   1.354       .  D
C249        H251   1.087       .  S
C250        H252   1.075       .  S
C253        C254   1.210       .  T
C255        C256   1.214       .  T
C257        C258   1.216       .  T
C259        C260   1.200       .  T
C261        C262   1.217       .  T
C263        C264   1.205       .  T
C265        C266   1.211       .  T
C267        C268   1.193       .  T
O269        C271   1.295       .  A
O269       Zr817   2.480       .  S
O270        C271   1.285       .  A
O270       Zr307   2.426       .  S
C271        C396   1.449       .  S
O272        C274   1.286       .  A
O272       Zr284   2.443       .  S
O273        C274   1.291       .  A
C274        C390   1.452       .  S
O275        C277   1.283       .  A
O275       Zr820   2.423       .  S
O276        C277   1.284       .  A
O276       Zr441   2.419   1_554  S
C277        C401   1.423       .  S
O278        C280   1.291       .  A
O278       Zr281   2.458       .  S
O279        C280   1.279       .  A
C280        C400   1.425       .  S
Zr281       O805   2.476   1_455  S
Zr281       O282   2.433       .  S
Zr281       O283   2.434       .  S
Zr281       O823   2.376   1_455  S
Zr281       O422   2.372       .  S
Zr281       O849   2.362   1_455  S
O282        H861   0.990   1_455  S
O283        H860   0.990   1_455  S
O283        H328   0.990       .  S
Zr284       O811   2.414   1_455  S
Zr284       O821   2.436       .  S
Zr284       O286   2.436       .  S
Zr284       O288   2.361       .  S
Zr284       O957   2.378   1_455  S
Zr284       O848   2.379   1_455  S
O285       Zr820   2.437       .  S
O285        H862   0.990       .  S
O285        H329   0.990       .  S
O286        H855   0.990   1_455  S
O287       Zr817   2.377       .  S
O287       Zr954   2.376       .  S
O287       Zr307   2.392       .  S
O288       Zr415   2.374   1_554  S
O288        H315   0.964       .  S
O289        C291   1.295       .  A
O289       Zr837   2.480       .  S
O290        C291   1.289       .  A
O290       Zr442   2.443       .  S
C291        C387   1.460       .  S
O292        C294   1.283       .  A
O292       Zr304   2.430       .  S
O293        C294   1.291       .  A
C294        C391   1.447       .  S
O295        C297   1.283       .  A
O295       Zr840   2.422   1_455  S
O296        C297   1.285       .  A
O296       Zr308   2.422   1_554  S
C297        C393   1.422       .  S
O298        C300   1.295       .  A
O298       Zr301   2.481       .  S
O299        C300   1.279       .  A
C300        C397   1.435       .  S
Zr301       O825   2.482       .  S
Zr301       O302   2.435       .  S
Zr301       O303   2.434       .  S
Zr301       O979   2.372       .  S
Zr301       O310   2.382       .  S
Zr301       O847   2.376       .  S
O302        H858   0.990       .  S
O302        H327   0.990       .  S
O303        H859   0.990       .  S
Zr304       O831   2.409       .  S
Zr304       O841   2.433       .  S
Zr304       O306   2.435       .  S
Zr304       O444   2.367   1_554  S
Zr304       O845   2.374   1_554  S
Zr304       O850   2.377       .  S
O305       Zr840   2.435       .  S
O305        H857   0.990   1_655  S
O306        H856   0.990       .  S
O306        H330   0.990       .  S
Zr307       O410   2.421       .  S
Zr307       O446   2.381       .  S
Zr307       O313   2.393       .  S
Zr308       O424   2.445       .  S
Zr308       O309   2.397       .  S
Zr308       O445   2.396       .  S
Zr308       O314   2.385   1_556  S
O309       Zr971   2.371   1_455  S
O309       Zr840   2.375   1_456  S
O309        H317   0.968       .  S
O310       Zr438   2.375       .  S
O311       Zr837   2.369       .  S
O311       Zr442   2.391       .  S
O312       Zr820   2.372   1_545  S
O312       Zr441   2.385   1_544  S
O312        H316   0.965       .  S
O313       Zr817   2.363       .  S
O313        H318   0.963       .  S
O314       Zr840   2.388   1_455  S
H319        O822   0.990       .  S
H320        O842   0.990   1_455  S
H321        O841   0.990       .  S
H322        O838   0.990   1_455  S
H323        O839   0.990       .  S
H324        O819   0.990       .  S
H325        O818   0.989       .  S
H326        O821   0.990       .  S
C331        C376   1.555       .  S
C331        C380   1.545       .  S
C331        C383   1.534       .  S
C331        C388   1.492       .  S
C332        C367   1.527       .  S
C332        C371   1.542       .  S
C332        C384   1.529       .  S
C332        C399   1.457       .  S
C333        C359   1.533       .  S
C333        C363   1.550       .  S
C333        C368   1.529       .  S
C333        C389   1.487       .  S
C334        C355   1.541       .  S
C334        C360   1.549       .  S
C334        C375   1.549       .  S
C334        C394   1.457       .  S
C335        C348   1.522       .  S
C335        C351   1.546       .  S
C335        C379   1.551       .  S
C335        C398   1.473       .  S
C336        C343   1.539       .  S
C336        C347   1.542       .  S
C336        C356   1.543       .  S
C336        C392   1.481       .  S
C337        C339   1.545       .  S
C337        C344   1.546       .  S
C337        C364   1.542       .  S
C337        C402   1.457       .  S
C338        C340   1.533       .  S
C338        C352   1.538       .  S
C338        C372   1.524       .  S
C338        C395   1.491       .  S
C339        C340   1.358       .  D
C339        H341   1.079       .  S
C340        H342   1.073       .  S
C343        C344   1.348       .  D
C343        H345   1.079       .  S
C344        H346   1.086       .  S
C347        C348   1.352       .  D
C347        H349   1.088       .  S
C348        H350   1.069       .  S
C351        C352   1.363       .  D
C351        H353   1.093       .  S
C352        H354   1.093       .  S
C355        C356   1.357       .  D
C355        H357   1.082       .  S
C356        H358   1.084       .  S
C359        C360   1.350       .  D
C359        H361   1.082       .  S
C360        H362   1.087       .  S
C363        C364   1.357       .  D
C363        H365   1.084       .  S
C364        H366   1.081       .  S
C367        C368   1.350       .  D
C367        H369   1.072       .  S
C368        H370   1.086       .  S
C371        C372   1.359       .  D
C371        H373   1.086       .  S
C372        H374   1.084       .  S
C375        C376   1.352       .  D
C375        H377   1.084       .  S
C376        H378   1.073       .  S
C379        C380   1.358       .  D
C379        H381   1.086       .  S
C380        H382   1.067       .  S
C383        C384   1.347       .  D
C383        H385   1.086       .  S
C384        H386   1.079       .  S
C387        C388   1.221       .  T
C389        C390   1.216       .  T
C391        C392   1.214       .  T
C393        C394   1.199       .  T
C395        C396   1.215       .  T
C397        C398   1.207       .  T
C399        C400   1.201       .  T
C401        C402   1.200       .  T
O403        C405   1.294       .  A
O403       Zr951   2.477       .  S
O404        C405   1.289       .  A
O404       Zr441   2.447       .  S
C405        C530   1.459       .  S
O406        C408   1.287       .  A
O406       Zr418   2.446       .  S
O407        C408   1.291       .  A
C408        C524   1.449       .  S
O409        C411   1.284       .  A
O409       Zr954   2.427       .  S
O410        C411   1.285       .  A
C411        C535   1.425       .  S
O412        C414   1.292       .  A
O412       Zr415   2.465       .  S
O413        C414   1.281       .  A
C414        C534   1.434       .  S
Zr415       O939   2.473   1_455  S
Zr415       O416   2.433       .  S
Zr415       O417   2.436       .  S
Zr415       O957   2.376   1_456  S
Zr415       O983   2.366   1_455  S
O416        H995   0.990   1_455  S
O417        H994   0.990   1_455  S
O417        H462   0.990       .  S
Zr418       O945   2.432   1_455  S
Zr418       O955   2.436       .  S
Zr418       O420   2.438       .  S
Zr418       O422   2.367       .  S
Zr418       O823   2.377   1_455  S
Zr418       O982   2.375   1_465  S
O419       Zr954   2.438       .  S
O419        H996   0.990       .  S
O419        H463   0.990       .  S
O420        H989   0.990   1_455  S
O421       Zr951   2.375   1_554  S
O421       Zr820   2.381       .  S
O421       Zr441   2.389   1_554  S
O422        H449   0.964       .  S
O423        C425   1.293       .  A
O423       Zr971   2.476   1_455  S
O424        C425   1.289       .  A
C425        C521   1.458       .  S
O426        C428   1.279       .  A
O426       Zr438   2.412       .  S
O427        C428   1.295       .  A
C428        C525   1.445       .  S
O429        C431   1.276       .  A
O429       Zr974   2.396   1_455  S
O430        C431   1.287       .  A
O430       Zr442   2.432       .  S
C431        C527   1.417       .  S
O432        C434   1.291       .  A
O432       Zr435   2.460       .  S
O433        C434   1.281       .  A
C434        C531   1.430       .  S
Zr435       O959   2.469       .  S
Zr435       O436   2.436       .  S
Zr435       O437   2.433       .  S
Zr435       O845   2.372       .  S
Zr435       O444   2.380       .  S
Zr435       O981   2.376       .  S
O436        H992   0.990       .  S
O436        H461   0.990       .  S
O437        H993   0.990       .  S
Zr438       O965   2.408       .  S
Zr438       O975   2.435       .  S
Zr438       O440   2.436       .  S
Zr438       O979   2.366       .  S
Zr438       O984   2.377       .  S
O439       Zr974   2.433       .  S
O439        H991   0.990       .  S
O440        H990   0.990       .  S
O440        H464   0.990       .  S
Zr441       O447   2.393       .  S
Zr442       O443   2.383       .  S
Zr442       O448   2.377       .  S
O443       Zr837   2.372       .  S
O443       Zr974   2.370   1_455  S
O443        H451   0.968       .  S
O445       Zr971   2.381   1_455  S
O446       Zr954   2.382       .  S
O446        H450   0.966       .  S
O447       Zr951   2.370       .  S
O447        H452   0.968       .  S
O448       Zr974   2.377   1_455  S
H453        O956   0.990       .  S
H454        O976   0.990   1_455  S
H455        O975   0.990       .  S
H456        O972   0.990   1_455  S
H457        O973   0.990       .  S
H458        O953   0.990       .  S
H459        O952   0.990       .  S
H460        O955   0.990       .  S
C465        C510   1.553       .  S
C465        C514   1.518       .  S
C465        C517   1.538       .  S
C465        C522   1.491       .  S
C466        C501   1.544       .  S
C466        C505   1.555       .  S
C466        C518   1.538       .  S
C466        C533   1.465       .  S
C467        C493   1.536       .  S
C467        C497   1.537       .  S
C467        C502   1.538       .  S
C467        C523   1.485       .  S
C468        C489   1.544       .  S
C468        C494   1.540       .  S
C468        C509   1.522       .  S
C468        C528   1.456       .  S
C469        C482   1.538       .  S
C469        C485   1.547       .  S
C469        C513   1.535       .  S
C469        C532   1.465       .  S
C470        C477   1.526       .  S
C470        C481   1.536       .  S
C470        C490   1.550       .  S
C470        C526   1.486       .  S
C471        C473   1.544       .  S
C471        C478   1.541       .  S
C471        C498   1.538       .  S
C471        C536   1.459       .  S
C472        C474   1.536       .  S
C472        C486   1.545       .  S
C472        C506   1.542       .  S
C472        C529   1.500       .  S
C473        C474   1.355       .  D
C473        H475   1.082       .  S
C474        H476   1.078       .  S
C477        C478   1.354       .  D
C477        H479   1.075       .  S
C478        H480   1.086       .  S
C481        C482   1.360       .  D
C481        H483   1.085       .  S
C482        H484   1.075       .  S
C485        C486   1.356       .  D
C485        H487   1.090       .  S
C486        H488   1.090       .  S
C489        C490   1.368       .  D
C489        H491   1.091       .  S
C490        H492   1.091       .  S
C493        C494   1.345       .  D
C493        H495   1.074       .  S
C494        H496   1.087       .  S
C497        C498   1.354       .  D
C497        H499   1.082       .  S
C498        H500   1.088       .  S
C501        C502   1.355       .  D
C501        H503   1.080       .  S
C502        H504   1.088       .  S
C505        C506   1.359       .  D
C505        H507   1.086       .  S
C506        H508   1.079       .  S
C509        C510   1.359       .  D
C509        H511   1.058       .  S
C510        H512   1.086       .  S
C513        C514   1.339       .  D
C513        H515   1.086       .  S
C514        H516   1.074       .  S
C517        C518   1.351       .  D
C517        H519   1.088       .  S
C518        H520   1.073       .  S
C521        C522   1.219       .  T
C523        C524   1.214       .  T
C525        C526   1.213       .  T
C527        C528   1.196       .  T
C529        C530   1.221       .  T
C531        C532   1.203       .  T
C533        C534   1.206       .  T
C535        C536   1.201       .  T
O537        C539   1.296       .  A
O538        C539   1.286       .  A
O538       Zr575   2.430       .  S
C539        C664   1.453       .  S
O540        C542   1.285       .  A
O540       Zr552   2.440       .  S
O541        C542   1.294       .  A
O541       Zr844   2.470   1_554  S
C542        C658   1.455       .  S
O543        C545   1.282       .  A
O544        C545   1.282       .  A
O544       Zr709   2.407   1_554  S
C545        C669   1.414       .  S
O546        C548   1.294       .  A
O546       Zr549   2.476       .  S
O547        C548   1.274       .  A
O547       Zr978   2.368       .  S
C548        C668   1.423       .  S
Zr549       O550   2.434       .  S
Zr549       O551   2.436       .  S
Zr549       O690   2.368       .  S
Zr549       O847   2.371       .  S
O551        H596   0.990       .  S
Zr552       O554   2.436       .  S
Zr552       O556   2.362       .  S
Zr552       O850   2.371       .  S
O553        H597   0.990       .  S
O555       Zr575   2.384       .  S
O556       Zr683   2.373   1_554  S
O556       Zr844   2.389   1_554  S
O556        H583   0.964       .  S
O557        C559   1.292       .  A
O558        C559   1.288       .  A
O558       Zr710   2.439       .  S
C559        C655   1.449       .  S
O560        C562   1.284       .  A
O560       Zr572   2.432       .  S
O561        C562   1.290       .  A
O561       Zr977   2.454   1_545  S
C562        C659   1.446       .  S
O563        C565   1.284       .  A
O564        C565   1.281       .  A
O564       Zr576   2.406   1_554  S
C565        C661   1.421       .  S
O566        C568   1.294       .  A
O566       Zr569   2.473   1_655  S
O567        C568   1.280       .  A
O567       Zr843   2.402   1_545  S
C568        C665   1.433       .  S
Zr569       O570   2.436   1_455  S
Zr569       O571   2.436       .  S
Zr569       O578   2.382   1_455  S
Zr569       O849   2.369   1_445  S
O570        H595   0.990       .  S
Zr572       O574   2.434       .  S
Zr572       O712   2.373   1_554  S
Zr572       O848   2.367   1_545  S
O574        H598   0.990       .  S
Zr575       O678   2.421       .  S
Zr575       O963   2.468       .  S
Zr575       O835   2.390       .  S
Zr575       O846   2.382       .  S
Zr575       O714   2.375       .  S
Zr575       O581   2.396       .  S
Zr576       O809   2.459   1_546  S
Zr576       O949   2.382   1_545  S
Zr576       O692   2.439       .  S
Zr576       O824   2.387   1_546  S
Zr576       O577   2.385       .  S
Zr576       O713   2.391   1_545  S
Zr576       O582   2.375   1_556  S
O577        H585   0.967       .  S
O578       Zr706   2.375   1_655  S
O578       Zr843   2.389   1_545  S
O579       Zr817   2.376       .  S
O579       Zr710   2.395   1_565  S
O580       Zr840   2.367       .  S
O580       Zr709   2.383   1_554  S
O580        H584   0.965       .  S
O581       Zr837   2.369   1_655  S
O581        H586   0.967       .  S
O582       Zr820   2.369   1_545  S
C599        C644   1.553       .  S
C599        C648   1.529       .  S
C599        C651   1.535       .  S
C599        C656   1.482       .  S
C600        C635   1.529       .  S
C600        C639   1.548       .  S
C600        C652   1.527       .  S
C600        C667   1.455       .  S
C601        C627   1.532       .  S
C601        C631   1.547       .  S
C601        C636   1.532       .  S
C601        C657   1.491       .  S
C602        C623   1.542       .  S
C602        C628   1.549       .  S
C602        C643   1.547       .  S
C602        C662   1.455       .  S
C603        C616   1.527       .  S
C603        C619   1.541       .  S
C603        C647   1.540       .  S
C603        C666   1.468       .  S
C604        C611   1.537       .  S
C604        C615   1.545       .  S
C604        C624   1.543       .  S
C604        C660   1.480       .  S
C605        C607   1.542       .  S
C605        C612   1.545       .  S
C605        C632   1.540       .  S
C605        C670   1.447       .  S
C606        C608   1.534       .  S
C606        C620   1.542       .  S
C606        C640   1.540       .  S
C606        C663   1.493       .  S
C607        C608   1.353       .  D
C607        H609   1.077       .  S
C608        H610   1.080       .  S
C611        C612   1.346       .  D
C611        H613   1.078       .  S
C612        H614   1.086       .  S
C615        C616   1.355       .  D
C615        H617   1.087       .  S
C616        H618   1.064       .  S
C619        C620   1.357       .  D
C619        H621   1.092       .  S
C620        H622   1.091       .  S
C623        C624   1.360       .  D
C623        H625   1.082       .  S
C624        H626   1.083       .  S
C627        C628   1.347       .  D
C627        H629   1.082       .  S
C628        H630   1.087       .  S
C631        C632   1.356       .  D
C631        H633   1.084       .  S
C632        H634   1.082       .  S
C635        C636   1.353       .  D
C635        H637   1.071       .  S
C636        H638   1.086       .  S
C639        C640   1.361       .  D
C639        H641   1.086       .  S
C640        H642   1.084       .  S
C643        C644   1.350       .  D
C643        H645   1.084       .  S
C644        H646   1.073       .  S
C647        C648   1.354       .  D
C647        H649   1.087       .  S
C648        H650   1.069       .  S
C651        C652   1.344       .  D
C651        H653   1.087       .  S
C652        H654   1.080       .  S
C655        C656   1.214       .  T
C657        C658   1.219       .  T
C659        C660   1.213       .  T
C661        C662   1.198       .  T
C663        C664   1.217       .  T
C665        C666   1.205       .  T
C667        C668   1.200       .  T
C669        C670   1.194       .  T
O671        C673   1.293       .  A
O672        C673   1.291       .  A
O672       Zr709   2.453       .  S
C673        C798   1.459       .  S
O674        C676   1.284       .  A
O674       Zr686   2.440       .  S
O675        C676   1.290       .  A
O675       Zr978   2.457       .  S
C676        C792   1.448       .  S
O677        C679   1.282       .  A
O678        C679   1.284       .  A
C679        C803   1.421       .  S
O680        C682   1.290       .  A
O680       Zr683   2.454       .  S
O681        C682   1.281       .  A
O681       Zr844   2.402       .  S
C682        C802   1.426       .  S
Zr683       O684   2.435       .  S
Zr683       O685   2.436       .  S
Zr683       O981   2.384       .  S
O685        H730   0.990       .  S
Zr686       O688   2.436       .  S
Zr686       O690   2.364       .  S
Zr686       O984   2.371       .  S
O687        H731   0.990       .  S
O689       Zr709   2.393   1_554  S
O690       Zr978   2.380       .  S
O690        H717   0.965       .  S
O691        C693   1.292       .  A
O692        C693   1.287       .  A
C693        C789   1.453       .  S
O694        C696   1.280       .  A
O694       Zr706   2.415   1_655  S
O695        C696   1.292       .  A
O695       Zr843   2.460   1_545  S
C696        C793   1.440       .  S
O697        C699   1.277       .  A
O698        C699   1.290       .  A
O698       Zr710   2.447       .  S
C699        C795   1.425       .  S
O700        C702   1.291       .  A
O700       Zr703   2.461       .  S
O701        C702   1.282       .  A
O701       Zr977   2.407   1_546  S
C702        C799   1.433       .  S
Zr703       O704   2.435       .  S
Zr703       O705   2.435       .  S
Zr703       O712   2.377       .  S
Zr703       O983   2.361   1_545  S
O704        H729   0.990   1_655  S
Zr706       O708   2.434   1_455  S
Zr706       O982   2.369   1_455  S
O708        H732   0.990   1_655  S
Zr709       O829   2.491   1_556  S
Zr709       O969   2.399       .  S
Zr709       O980   2.385       .  S
Zr709       O715   2.398       .  S
Zr710       O943   2.472   1_545  S
Zr710       O815   2.429   1_545  S
Zr710       O958   2.392   1_545  S
Zr710       O711   2.391       .  S
Zr710       O716   2.383   1_545  S
O711        H719   0.965       .  S
O712       Zr977   2.381   1_546  S
O713       Zr951   2.377       .  S
O714       Zr974   2.366       .  S
O714        H718   0.966       .  S
O715       Zr971   2.369       .  S
O715        H720   0.968       .  S
O716       Zr954   2.374       .  S
C733        C778   1.553       .  S
C733        C782   1.519       .  S
C733        C785   1.537       .  S
C733        C790   1.486       .  S
C734        C769   1.541       .  S
C734        C773   1.546       .  S
C734        C786   1.536       .  S
C734        C801   1.457       .  S
C735        C761   1.540       .  S
C735        C765   1.543       .  S
C735        C770   1.535       .  S
C735        C791   1.483       .  S
C736        C757   1.541       .  S
C736        C762   1.544       .  S
C736        C777   1.526       .  S
C736        C796   1.462       .  S
C737        C750   1.538       .  S
C737        C753   1.545       .  S
C737        C781   1.537       .  S
C737        C800   1.467       .  S
C738        C745   1.521       .  S
C738        C749   1.532       .  S
C738        C758   1.549       .  S
C738        C794   1.482       .  S
C739        C741   1.543       .  S
C739        C746   1.539       .  S
C739        C766   1.539       .  S
C739        C804   1.454       .  S
C740        C742   1.533       .  S
C740        C754   1.544       .  S
C740        C774   1.535       .  S
C740        C797   1.499       .  S
C741        C742   1.359       .  D
C741        H743   1.082       .  S
C742        H744   1.080       .  S
C745        C746   1.351       .  D
C745        H747   1.073       .  S
C746        H748   1.086       .  S
C749        C750   1.359       .  D
C749        H751   1.083       .  S
C750        H752   1.079       .  S
C753        C754   1.356       .  D
C753        H755   1.090       .  S
C754        H756   1.089       .  S
C757        C758   1.365       .  D
C757        H759   1.091       .  S
C758        H760   1.090       .  S
C761        C762   1.348       .  D
C761        H763   1.075       .  S
C762        H764   1.086       .  S
C765        C766   1.355       .  D
C765        H767   1.083       .  S
C766        H768   1.088       .  S
C769        C770   1.354       .  D
C769        H771   1.079       .  S
C770        H772   1.088       .  S
C773        C774   1.352       .  D
C773        H775   1.086       .  S
C774        H776   1.078       .  S
C777        C778   1.356       .  D
C777        H779   1.066       .  S
C778        H780   1.086       .  S
C781        C782   1.341       .  D
C781        H783   1.086       .  S
C782        H784   1.075       .  S
C785        C786   1.348       .  D
C785        H787   1.088       .  S
C786        H788   1.070       .  S
C789        C790   1.217       .  T
C791        C792   1.214       .  T
C793        C794   1.210       .  T
C795        C796   1.202       .  T
C797        C798   1.220       .  T
C799        C800   1.205       .  T
C801        C802   1.200       .  T
C803        C804   1.198       .  T
O805        C807   1.294       .  A
O806        C807   1.287       .  A
O806       Zr843   2.439       .  S
C807        C932   1.455       .  S
O808        C810   1.286       .  A
O808       Zr820   2.447       .  S
O809        C810   1.291       .  A
C810        C926   1.454       .  S
O811        C813   1.281       .  A
O812        C813   1.283       .  A
O812       Zr977   2.415       .  S
C813        C937   1.417       .  S
O814        C816   1.292       .  A
O814       Zr817   2.465       .  S
O815        C816   1.287       .  A
C816        C936   1.446       .  S
Zr817       O818   2.435       .  S
Zr817       O819   2.436       .  S
Zr817       O958   2.380       .  S
O819        H864   0.990       .  S
Zr820       O822   2.436       .  S
Zr820       O824   2.367       .  S
O821        H865   0.990       .  S
O823       Zr843   2.386       .  S
O824       Zr951   2.375   1_554  S
O824        H851   0.967       .  S
O825        C827   1.296       .  A
O826        C827   1.284       .  A
O826       Zr978   2.422       .  S
C827        C923   1.452       .  S
O828        C830   1.287       .  A
O828       Zr840   2.449       .  S
O829        C830   1.298       .  A
C830        C927   1.471       .  S
O831        C833   1.280       .  A
O832        C833   1.285       .  A
O832       Zr844   2.423   1_554  S
C833        C929   1.418       .  S
O834        C836   1.292       .  A
O834       Zr837   2.465   1_655  S
O835        C836   1.279       .  A
C836        C933   1.426       .  S
Zr837       O838   2.434   1_455  S
Zr837       O839   2.435       .  S
Zr837       O846   2.381   1_455  S
O838        H863   0.990       .  S
Zr840       O842   2.435       .  S
Zr840       O980   2.370   1_554  S
O842        H866   0.990   1_655  S
Zr843       O946   2.432       .  S
Zr843       O982   2.383   1_565  S
Zr843       O849   2.394       .  S
Zr844       O960   2.462       .  S
Zr844       O845   2.390       .  S
Zr844       O981   2.393       .  S
Zr844       O850   2.383   1_556  S
O845        H853   0.968       .  S
O846       Zr974   2.366       .  S
O847       Zr978   2.389       .  S
O848       Zr977   2.383       .  S
O848        H852   0.965       .  S
O849        H854   0.964       .  S
C867        C912   1.515       .  S
C867        C916   1.534       .  S
C867        C919   1.531       .  S
C867        C924   1.491       .  S
C868        C903   1.545       .  S
C868        C907   1.535       .  S
C868        C920   1.543       .  S
C868        C935   1.488       .  S
C869        C895   1.535       .  S
C869        C899   1.541       .  S
C869        C904   1.545       .  S
C869        C925   1.490       .  S
C870        C891   1.548       .  S
C870        C896   1.544       .  S
C870        C911   1.537       .  S
C870        C930   1.451       .  S
C871        C884   1.524       .  S
C871        C887   1.552       .  S
C871        C915   1.552       .  S
C871        C934   1.467       .  S
C872        C879   1.539       .  S
C872        C883   1.543       .  S
C872        C892   1.551       .  S
C872        C928   1.505       .  S
C873        C875   1.543       .  S
C873        C880   1.542       .  S
C873        C900   1.538       .  S
C873        C938   1.451       .  S
C874        C876   1.532       .  S
C874        C888   1.543       .  S
C874        C908   1.514       .  S
C874        C931   1.494       .  S
C875        C876   1.358       .  D
C875        H877   1.081       .  S
C876        H878   1.079       .  S
C879        C880   1.341       .  D
C879        H881   1.086       .  S
C880        H882   1.086       .  S
C883        C884   1.358       .  D
C883        H885   1.088       .  S
C884        H886   1.071       .  S
C887        C888   1.369       .  D
C887        H889   1.092       .  S
C888        H890   1.092       .  S
C891        C892   1.365       .  D
C891        H893   1.074       .  S
C892        H894   1.085       .  S
C895        C896   1.345       .  D
C895        H897   1.082       .  S
C896        H898   1.082       .  S
C899        C900   1.357       .  D
C899        H901   1.085       .  S
C900        H902   1.079       .  S
C903        C904   1.368       .  D
C903        H905   1.083       .  S
C904        H906   1.086       .  S
C907        C908   1.351       .  D
C907        H909   1.086       .  S
C908        H910   1.061       .  S
C911        C912   1.362       .  D
C911        H913   1.086       .  S
C912        H914   1.075       .  S
C915        C916   1.353       .  D
C915        H917   1.087       .  S
C916        H918   1.071       .  S
C919        C920   1.361       .  D
C919        H921   1.091       .  S
C920        H922   1.092       .  S
C923        C924   1.217       .  T
C925        C926   1.218       .  T
C927        C928   1.227       .  T
C929        C930   1.197       .  T
C931        C932   1.218       .  T
C933        C934   1.202       .  T
C935        C936   1.213       .  T
C937        C938   1.196       .  T
O939        C941   1.293       .  A
O940        C941   1.285       .  A
O940       Zr977   2.426   1_556  S
C941       C1066   1.448       .  S
O942        C944   1.285       .  A
O942       Zr954   2.440       .  S
O943        C944   1.295       .  A
C944       C1060   1.456       .  S
O945        C947   1.284       .  A
O946        C947   1.287       .  A
C947       C1071   1.434       .  S
O948        C950   1.293       .  A
O948       Zr951   2.468       .  S
O949        C950   1.276       .  A
C950       C1070   1.426       .  S
Zr951       O952   2.436       .  S
Zr951       O953   2.434       .  S
O953        H998   0.990       .  S
Zr954       O956   2.435       .  S
Zr954       O958   2.372       .  S
O955        H999   0.990       .  S
O957       Zr977   2.388       .  S
O958        H985   0.966       .  S
O959        C961   1.292       .  A
O960        C961   1.292       .  A
C961       C1057   1.464       .  S
O962        C964   1.279       .  A
O962       Zr974   2.411       .  S
O963        C964   1.293       .  A
C964       C1061   1.443       .  S
O965        C967   1.279       .  A
O966        C967   1.280       .  A
O966       Zr978   2.400       .  S
C967       C1063   1.407       .  S
O968        C970   1.295       .  A
O968       Zr971   2.476       .  S
O969        C970   1.280       .  A
C970       C1067   1.434       .  S
Zr971       O972   2.437       .  S
Zr971       O973   2.436       .  S
Zr971       O980   2.385       .  S
O972        H997   0.990       .  S
Zr974       O976   2.435       .  S
O976       H1000   0.990       .  S
Zr977       O983   2.390   1_554  S
Zr978       O979   2.383       .  S
Zr978       O984   2.373       .  S
O979        H987   0.966       .  S
O982        H986   0.965       .  S
O983        H988   0.965       .  S
C1001      C1046   1.556       .  S
C1001      C1050   1.543       .  S
C1001      C1053   1.531       .  S
C1001      C1058   1.496       .  S
C1002      C1037   1.534       .  S
C1002      C1041   1.543       .  S
C1002      C1054   1.524       .  S
C1002      C1069   1.458       .  S
C1003      C1029   1.532       .  S
C1003      C1033   1.549       .  S
C1003      C1038   1.535       .  S
C1003      C1059   1.493       .  S
C1004      C1025   1.531       .  S
C1004      C1030   1.545       .  S
C1004      C1045   1.546       .  S
C1004      C1064   1.441       .  S
C1005      C1018   1.523       .  S
C1005      C1021   1.545       .  S
C1005      C1049   1.549       .  S
C1005      C1068   1.471       .  S
C1006      C1013   1.543       .  S
C1006      C1017   1.543       .  S
C1006      C1026   1.535       .  S
C1006      C1062   1.478       .  S
C1007      C1009   1.550       .  S
C1007      C1014   1.550       .  S
C1007      C1034   1.543       .  S
C1007      C1072   1.467       .  S
C1008      C1010   1.536       .  S
C1008      C1022   1.538       .  S
C1008      C1042   1.525       .  S
C1008      C1065   1.489       .  S
C1009      C1010   1.359       .  D
C1009      H1011   1.080       .  S
C1010      H1012   1.072       .  S
C1013      C1014   1.349       .  D
C1013      H1015   1.079       .  S
C1014      H1016   1.086       .  S
C1017      C1018   1.352       .  D
C1017      H1019   1.088       .  S
C1018      H1020   1.069       .  S
C1021      C1022   1.362       .  D
C1021      H1023   1.093       .  S
C1022      H1024   1.093       .  S
C1025      C1026   1.352       .  D
C1025      H1027   1.081       .  S
C1026      H1028   1.084       .  S
C1029      C1030   1.348       .  D
C1029      H1031   1.082       .  S
C1030      H1032   1.087       .  S
C1033      C1034   1.357       .  D
C1033      H1035   1.084       .  S
C1034      H1036   1.081       .  S
C1037      C1038   1.354       .  D
C1037      H1039   1.075       .  S
C1038      H1040   1.086       .  S
C1041      C1042   1.360       .  D
C1041      H1043   1.086       .  S
C1042      H1044   1.084       .  S
C1045      C1046   1.348       .  D
C1045      H1047   1.084       .  S
C1046      H1048   1.074       .  S
C1049      C1050   1.355       .  D
C1049      H1051   1.087       .  S
C1050      H1052   1.067       .  S
C1053      C1054   1.347       .  D
C1053      H1055   1.086       .  S
C1054      H1056   1.078       .  S
C1057      C1058   1.223       .  T
C1059      C1060   1.219       .  T
C1061      C1062   1.212       .  T
C1063      C1064   1.190       .  T
C1065      C1066   1.214       .  T
C1067      C1068   1.206       .  T
C1069      C1070   1.201       .  T
C1071      C1072   1.206       .  T
