geometry optimzed in LAMMPS
_audit_creation_date              2020-12-01 
_audit_creation_method            'lammps2cif' 
_symmetry_space_group_name_H-M    'P1' 
_symmetry_Int_Tables_number       1 
_symmetry_cell_setting            triclinic 
loop_ 
_symmetry_equiv_pos_as_xyz 
  x,y,z 
_cell_length_a                    20.37695332 
_cell_length_b                    31.855279898022207 
_cell_length_c                    33.49292319332452 
_cell_angle_alpha                 89.06146924111947 
_cell_angle_beta                  91.67379239548956 
_cell_angle_gamma                 89.06774026211446 
loop_ 
_atom_site_label 
_atom_site_type_symbol 
_atom_site_fract_x 
_atom_site_fract_y 
_atom_site_fract_z 
_atom_site_charge 
O1          O  0.20867091  0.20602926  0.95457019    -0.72300
O2          O  0.17857624  0.29856633  0.03389433    -0.73300
O3          O  0.20225877  0.29438059  0.95001487    -0.61900
O4          O  0.17964887  0.20962244  0.03775584    -0.70300
O5          O  0.28665316  0.20949920  0.05144624    -0.69900
O6          O  0.30956508  0.29717038  0.96305687    -0.61100
O7          O  0.28558176  0.29972270  0.04737608    -0.73700
O8          O  0.31568091  0.20898178  0.96756003    -0.72400
Cu9        Cu  0.18866610  0.25219012  0.99365670     1.04600
Cu10       Cu  0.30310471  0.25392145  0.00803893     1.02500
C11         C  0.26757315  0.19418617  0.94741415     0.93900
C12         C  0.22758888  0.31323164  0.05377292     0.93000
C13         C  0.25883119  0.30782122  0.94153944     0.85200
C14         C  0.22899397  0.19607300  0.05869713     0.91400
C15         C  0.21708586  0.09483075  0.20664525    -0.01900
C16         C  0.20267412  0.40261313  0.20503371    -0.01900
C17         C  0.46776202  0.15308888  0.29292258    -0.01900
C18         C  0.95976366  0.34428274  0.29085104    -0.01900
O19         O  0.04921697  0.04169002  0.45891463    -0.72300
O20         O  0.05281323  0.44448937  0.53713141    -0.73300
O21         O  0.04363675  0.45262501  0.45328254    -0.61900
O22         O  0.06046535  0.03420473  0.54499740    -0.70300
O23         O  0.45739299  0.03954931  0.54785260    -0.69900
O24         O  0.43821454  0.45568901  0.45739948    -0.61100
O25         O  0.44748233  0.44981701  0.54353316    -0.73700
O26         O  0.44570521  0.04588735  0.46097010    -0.72400
Cu27       Cu  0.05344624  0.99364032  0.49865578     1.04600
Cu28       Cu  0.44276452  0.99787637  0.50185718     1.04300
C29         C  0.49918386  0.05861256  0.44597707     0.93900
C30         C  0.50265627  0.43278029  0.55415885     0.93000
C31         C  0.48999447  0.44143707  0.44109635     0.85200
C32         C  0.51469556  0.04953796  0.56138873     0.91400
C33         C  0.28249904  0.09788216  0.79887610    -0.01900
C34         C  0.27649223  0.40730638  0.79083415    -0.01900
C35         C  0.02514939  0.15539967  0.71006274    -0.01900
C36         C  0.52656465  0.34511111  0.71255432    -0.01900
C37         C  0.04079470  0.22590964  0.74241250    -0.11700
C38         C  0.03167385  0.20448249  0.70621672     0.05400
C39         C  0.53389181  0.22874048  0.67147595    -0.06900
C40         C  0.53302381  0.27306894  0.67430309    -0.07700
C41         C  0.53459123  0.29483514  0.71126143    -0.02200
C42         C  0.05155397  0.26897140  0.74478654     0.04600
N43         N  0.09687830  0.28001108  0.77667385     0.67100
H44         H  0.04640327  0.20808100  0.76982876     0.16000
H45         H  0.53694516  0.28972968  0.64635792     0.15700
N46         N  0.54288608  0.21129822  0.63279533     0.74800
O47         O  0.08563945  0.26707975  0.81163477    -0.38700
O48         O  0.15654934  0.28243132  0.76822149    -0.38600
O49         O  0.50868770  0.22540215  0.60336304    -0.39300
O50         O  0.59573165  0.19182216  0.62609487    -0.39400
C51         C  0.15015431  0.34922207  0.71932062    -0.11700
C52         C  0.08943293  0.36327208  0.73381429     0.05400
C53         C  0.09226182  0.39283023  0.76547818    -0.06900
C54         C  0.15314868  0.40220775  0.78355393    -0.07700
C55         C  0.21400454  0.39073493  0.76750595    -0.02200
C56         C  0.21138555  0.36112255  0.73542505     0.04600
N57         N  0.26744767  0.33929026  0.71994011     0.67100
H58         H  0.14998727  0.32728816  0.69492443     0.16000
H59         H  0.15315574  0.42298223  0.80877725     0.15700
N60         N  0.03682894  0.41786706  0.77725792     0.74800
O61         O  0.29896406  0.31285540  0.74171512    -0.38700
O62         O  0.27168216  0.33595774  0.68257866    -0.38600
O63         O  0.52952781  0.42276666  0.81579527    -0.39300
O64         O  0.00772742  0.44162548  0.75175955    -0.39400
C65         C  0.38933440  0.36726920  0.79239051    -0.11700
C66         C  0.34229711  0.39260608  0.77118411     0.05400
C67         C  0.35872687  0.40335584  0.73160137    -0.06900
C68         C  0.41700858  0.38868695  0.71524735    -0.07700
C69         C  0.46094262  0.35904252  0.73434949    -0.02200
C70         C  0.44405578  0.34851610  0.77460511     0.04600
N71         N  0.48295469  0.32183305  0.80060387     0.67100
H72         H  0.38489538  0.36102189  0.82395205     0.16000
H73         H  0.42831311  0.40440151  0.68773321     0.15700
N74         N  0.31767529  0.42973755  0.70656220     0.74800
O75         O  0.52458875  0.33864815  0.82362197    -0.38700
O76         O  0.45714861  0.28838386  0.81270188    -0.38600
O77         O  0.32449305  0.46844166  0.71004671    -0.39300
O78         O  0.29959567  0.41661034  0.67273965    -0.39400
C79         C  0.15385236  0.11409324  0.79464798    -0.11700
C80         C  0.21592219  0.11741498  0.77660020     0.05400
C81         C  0.21039011  0.13598165  0.73724179    -0.06900
C82         C  0.15007843  0.15084424  0.72040911    -0.07700
C83         C  0.08897369  0.14212812  0.73647547    -0.02200
C84         C  0.09255064  0.12586844  0.77637823     0.04600
N85         N  0.03634240  0.12301944  0.80084984     0.67100
H86         H  0.15001461  0.09984170  0.82285139     0.16000
H87         H  0.15074779  0.16526180  0.69101367     0.15700
N88         N  0.26085424  0.13394621  0.70930332     0.74800
O89         O  0.02235366  0.08773862  0.81557587    -0.38700
O90         O  0.51332879  0.15334902  0.81730403    -0.38600
O91         O  0.26063166  0.10238527  0.68704266    -0.39300
O92         O  0.27972570  0.16849690  0.69504301    -0.39400
C93         C  0.44726423  0.09972451  0.73730247    -0.11700
C94         C  0.45946695  0.14265687  0.73229859     0.05400
C95         C  0.40872947  0.17060522  0.74612048    -0.06900
C96         C  0.35664454  0.15479719  0.76864983    -0.07700
C97         C  0.34498343  0.11160286  0.77411294    -0.02200
C98         C  0.38994427  0.08437985  0.75442223     0.04600
N99         N  0.37326405  0.04288143  0.74376387     0.67100
H100        H  0.48124177  0.07727910  0.72488327     0.16000
H101        H  0.32100094  0.17694734  0.77988408     0.15700
N102        N  0.40397642  0.21444050  0.73574878     0.74800
O103        O  0.41611820  0.01385119  0.74708881    -0.38700
O104        O  0.32414040  0.03833224  0.72067967    -0.38600
O105        O  0.39427252  0.22550801  0.69973825    -0.39300
O106        O  0.38986215  0.24032815  0.76237947    -0.39400
C107        C  0.23013771  0.02768915  0.78203352    -0.11700
C108        C  0.28046509  0.04814338  0.80239843     0.05400
C109        C  0.33059277  0.02085846  0.82026837    -0.06900
C110        C  0.33110704  0.47735159  0.81340898    -0.07700
C111        C  0.27832771  0.45774161  0.79258987    -0.02200
C112        C  0.23291677  0.48695064  0.77307681     0.04600
N113        N  0.18402029  0.47630986  0.74422686     0.67100
H114        H  0.19248004  0.04530417  0.76567095     0.16000
H115        H  0.36887298  0.45749673  0.82767955     0.15700
N116        N  0.38552188  0.03702800  0.84250456     0.74800
O117        O  0.12561106  0.48369496  0.75386140    -0.38700
O118        O  0.19785847  0.48378908  0.70840493    -0.38600
O119        O  0.44230268  0.02314252  0.83549939    -0.39300
O120        O  0.37633672  0.05379706  0.87575964    -0.39400
C121        C  0.06356835  0.40716637  0.61138669    -0.11700
C122        C  0.50932913  0.40263976  0.58880121     0.05400
C123        C  0.46090629  0.37534144  0.60280702    -0.06900
C124        C  0.47034443  0.35435880  0.64040987    -0.07700
C125        C  0.52343130  0.36413633  0.66755059    -0.02200
C126        C  0.06726597  0.39421650  0.65109993     0.04600
N127        N  0.10675267  0.42038553  0.67495025     0.67100
H128        H  0.10041686  0.42895060  0.60157084     0.16000
H129        H  0.43298287  0.33293576  0.65008113     0.15700
N130        N  0.40250009  0.36842156  0.57947813     0.74800
O131        O  0.16726084  0.42044341  0.66817071    -0.38700
O132        O  0.07974215  0.45365438  0.68668442    -0.38600
O133        O  0.39917514  0.33680889  0.55735304    -0.39300
O134        O  0.35113570  0.38956509  0.58598713    -0.39400
C135        C  0.07322888  0.09974204  0.65936248    -0.11700
C136        C  0.02405795  0.13043922  0.66841792     0.05400
C137        C  0.47216956  0.13135448  0.64005269    -0.06900
C138        C  0.47128784  0.10650888  0.60537585    -0.07700
C139        C  0.01786265  0.07872607  0.59678204    -0.02200
C140        C  0.07233469  0.07637040  0.62375406     0.04600
N141        N  0.12740708  0.04974193  0.61592075     0.67100
H142        H  0.11305517  0.09183201  0.68001880     0.16000
H143        H  0.42830855  0.10827130  0.58552432     0.15700
N144        N  0.41223241  0.15206448  0.64804366     0.74800
O145        O  0.17485747  0.06417297  0.59691065    -0.38700
O146        O  0.13248785  0.01380469  0.63212577    -0.38600
O147        O  0.39814682  0.18607953  0.62975925    -0.39300
O148        O  0.36610229  0.12822374  0.65663632    -0.39400
C149        C  0.02698295  0.38681545  0.34336457    -0.11700
C150        C  0.96917751  0.36454980  0.33353880     0.05400
C151        C  0.42463623  0.36160592  0.36566955    -0.06900
C152        C  0.43078326  0.38716011  0.39976105    -0.07700
C153        C  0.98306600  0.41286180  0.40515026    -0.02200
C154        C  0.03370762  0.41113526  0.37742574     0.04600
N155        N  0.09189833  0.43534511  0.38209411     0.67100
H156        H  0.06925537  0.38579038  0.32486815     0.16000
H157        H  0.39323857  0.38602997  0.42198262     0.15700
N158        N  0.37240357  0.33210886  0.36420811     0.74800
O159        O  0.13860398  0.42146089  0.40438848    -0.38700
O160        O  0.10263713  0.46433239  0.35711582    -0.38600
O161        O  0.38558068  0.29425340  0.37321438    -0.39300
O162        O  0.31389386  0.34513927  0.36690091    -0.39400
C163        C  0.43893373  0.11314172  0.40325111    -0.11700
C164        C  0.49683124  0.09004862  0.41209251     0.05400
C165        C  0.04652102  0.09385302  0.38632392    -0.06900
C166        C  0.03849185  0.11723028  0.35058965    -0.07700
C167        C  0.47888338  0.13605824  0.33769582    -0.02200
C168        C  0.43116898  0.13809813  0.36816021     0.04600
N169        N  0.37527751  0.16572795  0.36512369     0.67100
H170        H  0.39939738  0.11241274  0.42417972     0.16000
H171        H  0.08161709  0.11997676  0.33291235     0.15700
N172        N  0.10903044  0.07421629  0.39518776     0.74800
O173        O  0.31909689  0.15116035  0.37121687    -0.38700
O174        O  0.38410447  0.20431941  0.37059932    -0.38600
O175        O  0.13260895  0.04845174  0.37100330    -0.39300
O176        O  0.14576761  0.08874375  0.42243589    -0.39400
C177        C  0.01083710  0.22536284  0.31522312    -0.11700
C178        C  0.46061826  0.20306291  0.29638599     0.05400
C179        C  0.40346822  0.22831772  0.28557486    -0.06900
C180        C  0.40409147  0.27223270  0.28795080    -0.07700
C181        C  0.95910741  0.29467531  0.29806931    -0.02200
C182        C  0.01102959  0.26998460  0.31678788     0.04600
N183        N  0.06410308  0.28914039  0.33823219     0.67100
H184        H  0.05248300  0.20816105  0.32850632     0.16000
H185        H  0.35806924  0.28827098  0.28093320     0.15700
N186        N  0.34174838  0.21169907  0.27323115     0.74800
O187        O  0.55858745  0.30027476  0.37334587    -0.38700
O188        O  0.12208068  0.28302843  0.32712170    -0.38600
O189        O  0.30394106  0.19821162  0.29946143    -0.39300
O190        O  0.81686055  0.22394067  0.23916205    -0.39400
C191        C  0.08909909  0.41573961  0.23893089    -0.11700
C192        C  0.14025762  0.38780405  0.22841909     0.05400
C193        C  0.12973636  0.34447424  0.23746530    -0.06900
C194        C  0.06962820  0.33067817  0.25268189    -0.07700
C195        C  0.01885582  0.35858712  0.26373317    -0.02200
C196        C  0.02869864  0.40177077  0.25377921     0.04600
N197        N  0.97774400  0.43243002  0.25884239     0.67100
H198        H  0.09437368  0.44912236  0.23543550     0.16000
H199        H  0.06423328  0.29725172  0.25575856     0.15700
N200        N  0.17962014  0.31335141  0.23118261     0.74800
O201        O  0.97816191  0.45477727  0.28958980    -0.38700
O202        O  0.94223569  0.44362408  0.22893184    -0.38600
O203        O  0.21728867  0.30221180  0.26014217    -0.39300
O204        O  0.17576801  0.29034231  0.20093294    -0.39400
C205        C  0.31331797  0.35728676  0.21166881    -0.11700
C206        C  0.26616710  0.38369816  0.22936283     0.05400
C207        C  0.28250470  0.39535810  0.26933775    -0.06900
C208        C  0.34549994  0.38611202  0.28698053    -0.07700
C209        C  0.39353485  0.36038818  0.26881685    -0.02200
C210        C  0.37611647  0.34786643  0.22908558     0.04600
N211        N  0.42279732  0.32847165  0.20374328     0.67100
H212        H  0.30278579  0.34298315  0.18336643     0.16000
H213        H  0.35575522  0.40037763  0.31526952     0.15700
N214        N  0.23617796  0.41790009  0.29247995     0.74800
O215        O  0.44318304  0.29147391  0.21081158    -0.38700
O216        O  0.42978664  0.34398515  0.16927403    -0.38600
O217        O  0.19447570  0.39747506  0.31158004    -0.39300
O218        O  0.24814449  0.45503693  0.30256590    -0.39400
C219        C  0.10590376  0.08225921  0.24400781    -0.11700
C220        C  0.15322889  0.11074037  0.23010926     0.05400
C221        C  0.13777164  0.15406560  0.23781327    -0.06900
C222        C  0.07667255  0.16631899  0.25408376    -0.07700
C223        C  0.02973121  0.13775700  0.26794199    -0.02200
C224        C  0.04531788  0.09446584  0.26070061     0.04600
N225        N  0.99978239  0.06148152  0.26808419     0.67100
H226        H  0.11539665  0.04897783  0.24327739     0.16000
H227        H  0.06704316  0.19954839  0.25558676     0.15700
N228        N  0.18427885  0.18688802  0.23257616     0.74800
O229        O  0.99317227  0.03318603  0.24242163    -0.38700
O230        O  0.48091508  0.05505068  0.30378353    -0.38600
O231        O  0.20929997  0.19362689  0.19918165    -0.39300
O232        O  0.18766447  0.21521733  0.25842488    -0.39400
C233        C  0.35639729  0.11082358  0.28947171    -0.11700
C234        C  0.40490624  0.13473510  0.27026787     0.05400
C235        C  0.39097975  0.14446091  0.22918498    -0.06900
C236        C  0.32966318  0.13511261  0.21099699    -0.07700
C237        C  0.28061407  0.11157956  0.23009674    -0.02200
C238        C  0.29452364  0.10175263  0.27121490     0.04600
N239        N  0.24641894  0.08246471  0.29546818     0.67100
H240        H  0.36476263  0.09879246  0.31932953     0.16000
H241        H  0.32171941  0.14805990  0.18148243     0.15700
N242        N  0.43768836  0.16547847  0.20514679     0.74800
O243        O  0.20586577  0.10578359  0.31272224    -0.38700
O244        O  0.25665446  0.04570369  0.30902022    -0.38600
O245        O  0.97631159  0.14272096  0.18440768    -0.39300
O246        O  0.42837106  0.20366912  0.19582592    -0.39400
C247        C  0.26756516  0.47220138  0.21472274    -0.11700
C248        C  0.20937172  0.45266549  0.20126814     0.05400
C249        C  0.16323773  0.48080337  0.18134046    -0.06900
C250        C  0.16800494  0.02477453  0.18232984    -0.07700
C251        C  0.21998287  0.04481084  0.20320086    -0.02200
C252        C  0.27267770  0.01697763  0.21640292     0.04600
N253        N  0.33604434  0.03079250  0.22943150     0.67100
H254        H  0.31103430  0.45383104  0.22231396     0.16000
H255        H  0.12969007  0.04410681  0.16792599     0.15700
N256        N  0.10940445  0.46597734  0.15754357     0.74800
O257        O  0.35843361  0.01806365  0.26310351    -0.38700
O258        O  0.37653280  0.04086471  0.20341039    -0.38600
O259        O  0.05193422  0.47778594  0.16568704    -0.39300
O260        O  0.12022207  0.45465134  0.12237968    -0.39400
C261        C  0.15728604  0.13642279  0.14706305    -0.11700
C262        C  0.21240238  0.11222942  0.16163649     0.05400
C263        C  0.26294416  0.10644168  0.13319028    -0.06900
C264        C  0.26761566  0.13445180  0.10046391    -0.07700
C265        C  0.21908471  0.16484322  0.09163498    -0.02200
C266        C  0.16103064  0.16350924  0.11357573     0.04600
N267        N  0.10718651  0.19168824  0.10434227     0.67100
H268        H  0.11206976  0.13736414  0.16302687     0.16000
H269        H  0.30947848  0.13201340  0.08135117     0.15700
N270        N  0.31204695  0.07404818  0.13735671     0.74800
O271        O  0.05413999  0.17767309  0.08995728    -0.38700
O272        O  0.10917172  0.22908383  0.11613597    -0.38600
O273        O  0.29564951  0.03678749  0.13040322    -0.39300
O274        O  0.37152107  0.08365367  0.13374263    -0.39400
C275        C  0.15760757  0.34075083  0.10675811    -0.11700
C276        C  0.21629667  0.34324476  0.08670575     0.05400
C277        C  0.26337223  0.37197943  0.10048810    -0.06900
C278        C  0.25317939  0.39424392  0.13588783    -0.07700
C279        C  0.19933934  0.38593973  0.16065815    -0.02200
C280        C  0.14742966  0.36181602  0.14253683     0.04600
N281        N  0.08314459  0.35811401  0.15820682     0.67100
H282        H  0.11906371  0.32092734  0.09506892     0.16000
H283        H  0.29148576  0.41494588  0.14628658     0.15700
N284        N  0.32232692  0.37846881  0.07933885     0.74800
O285        O  0.04499577  0.38966395  0.15720633    -0.38700
O286        O  0.05854562  0.32208366  0.16094302    -0.38600
O287        O  0.32637657  0.40980218  0.05606831    -0.39300
O288        O  0.37324873  0.35697801  0.08854625    -0.39400
C289        C  0.23222988  0.13496891  0.90518816    -0.11700
C290        C  0.27958593  0.16452362  0.91441462     0.05400
C291        C  0.33647732  0.16527672  0.89140206    -0.06900
C292        C  0.33900704  0.14198334  0.85610471    -0.07700
C293        C  0.28679901  0.11593511  0.84309311    -0.02200
C294        C  0.23914283  0.10781246  0.87299304     0.04600
N295        N  0.20723994  0.06826175  0.87661112     0.67100
H296        H  0.19245397  0.13030135  0.92550940     0.16000
H297        H  0.38412247  0.14346291  0.84022228     0.15700
N298        N  0.39241875  0.18909825  0.90341621     0.74800
O299        O  0.24290553  0.03683869  0.88560893    -0.38700
O300        O  0.14780607  0.06739365  0.88634127    -0.38600
O301        O  0.42894690  0.17574531  0.93211524    -0.39300
O302        O  0.41280531  0.21774056  0.88069898    -0.39400
C303        C  0.26752995  0.37709927  0.90681351    -0.11700
C304        C  0.26504318  0.33350568  0.90485280     0.05400
C305        C  0.26285065  0.31483063  0.86726395    -0.06900
C306        C  0.26575728  0.33996182  0.83288777    -0.07700
C307        C  0.27054809  0.38438498  0.83326374    -0.02200
C308        C  0.26798600  0.40267913  0.87195941     0.04600
N309        N  0.26009941  0.44646970  0.87766119     0.67100
H310        H  0.26556696  0.39163248  0.93581326     0.16000
H311        H  0.26344180  0.32392897  0.80515125     0.15700
N312        N  0.25707956  0.27027070  0.86308908     0.74800
O313        O  0.20598690  0.46382986  0.86733481    -0.38700
O314        O  0.29664006  0.46364611  0.90351729    -0.38600
O315        O  0.20792690  0.25191868  0.87674357    -0.39300
O316        O  0.29263412  0.25120217  0.83876890    -0.39400
O317        O  0.21822125  0.70433521  0.95405154    -0.72300
O318        O  0.18586856  0.79608689  0.03389371    -0.73300
O319        O  0.21022056  0.79248541  0.95010906    -0.61900
O320        O  0.18845939  0.70725744  0.03717903    -0.70300
O321        O  0.29528488  0.70756423  0.05137650    -0.69900
O322        O  0.31743081  0.79598380  0.96316666    -0.61100
O323        O  0.29269320  0.79803647  0.04772493    -0.73700
O324        O  0.32514091  0.70777069  0.96717733    -0.72400
Cu325      Cu  0.19716579  0.75003310  0.99341921     1.04600
Cu326      Cu  0.31144171  0.75241926  0.00808115     1.02500
C327        C  0.27729392  0.69302680  0.94671346     0.93900
C328        C  0.23436149  0.81110884  0.05398359     0.93000
C329        C  0.26654055  0.80626128  0.94159466     0.85200
C330        C  0.23761136  0.69395711  0.05838948     0.91400
C331        C  0.22234311  0.59419793  0.20707918    -0.01900
C332        C  0.20423800  0.90270822  0.20392296    -0.01900
C333        C  0.47310731  0.65292628  0.29311900    -0.01900
C334        C  0.96171241  0.84437063  0.29079591    -0.01900
O335        O  0.05444832  0.54052978  0.45822552    -0.72300
O336        O  0.04982826  0.94530610  0.53721786    -0.73300
O337        O  0.04104639  0.95381063  0.45358460    -0.61900
O338        O  0.06573947  0.53309950  0.54427810    -0.70300
O339        O  0.46006298  0.54040703  0.54768382    -0.69900
O340        O  0.43732997  0.95605928  0.45611460    -0.61100
O341        O  0.44640324  0.94874557  0.54190339    -0.73700
O342        O  0.44877105  0.54556462  0.46094191    -0.72400
Cu343      Cu  0.05754169  0.49249814  0.49817417     1.04600
Cu344      Cu  0.44470450  0.49818815  0.50251819     1.04300
C345        C  0.50253544  0.55760371  0.44578810     0.93900
C346        C  0.50191954  0.93188292  0.55197125     0.93000
C347        C  0.48944512  0.94258896  0.43961886     0.85200
C348        C  0.51764147  0.55003179  0.56090096     0.91400
C349        C  0.29133991  0.59970483  0.79601820    -0.01900
C350        C  0.27756799  0.90604718  0.79049921    -0.01900
C351        C  0.03206645  0.65540478  0.70818352    -0.01900
C352        C  0.52816068  0.84641420  0.71088147    -0.01900
C353        C  0.04603892  0.72542706  0.74090468    -0.11700
C354        C  0.03816689  0.70437329  0.70447463     0.05400
C355        C  0.54515432  0.73071238  0.66910214    -0.06900
C356        C  0.54162920  0.77500516  0.67227725    -0.07700
C357        C  0.53896351  0.79638651  0.70939061    -0.02200
C358        C  0.05400195  0.76863125  0.74396080     0.04600
N359        N  0.09624963  0.78031107  0.77712708     0.67100
H360        H  0.05152166  0.70731383  0.76815321     0.16000
H361        H  0.54749679  0.79222388  0.64479306     0.15700
N362        N  0.55904519  0.71380427  0.63062871     0.74800
O363        O  0.08411339  0.76574947  0.81140492    -0.38700
O364        O  0.15602546  0.78537273  0.77021322    -0.38600
O365        O  0.53259406  0.73055073  0.59959283    -0.39300
O366        O  0.60977308  0.69123209  0.62670765    -0.39400
C367        C  0.15107408  0.84958947  0.71786484    -0.11700
C368        C  0.09036625  0.86311054  0.73292793     0.05400
C369        C  0.09329282  0.89171270  0.76539806    -0.06900
C370        C  0.15427016  0.90061734  0.78356386    -0.07700
C371        C  0.21506433  0.88927665  0.76735334    -0.02200
C372        C  0.21241342  0.86027975  0.73477729     0.04600
N373        N  0.26837073  0.83774618  0.71975369     0.67100
H374        H  0.15072604  0.82830826  0.69296388     0.16000
H375        H  0.15436254  0.92097258  0.80906271     0.15700
N376        N  0.03800674  0.91649914  0.77793439     0.74800
O377        O  0.30059608  0.81236720  0.74227198    -0.38700
O378        O  0.27237521  0.83296442  0.68252973    -0.38600
O379        O  0.53097871  0.92460051  0.81395314    -0.39300
O380        O  0.00869092  0.94088365  0.75308018    -0.39400
C381        C  0.39085394  0.86687623  0.79116565    -0.11700
C382        C  0.34338347  0.89224607  0.77028264     0.05400
C383        C  0.36014641  0.90398841  0.73087524    -0.06900
C384        C  0.41754927  0.88855421  0.71396239    -0.07700
C385        C  0.46234645  0.85939870  0.73298440    -0.02200
C386        C  0.44617371  0.84889067  0.77333915     0.04600
N387        N  0.48615621  0.82287620  0.79937209     0.67100
H388        H  0.38663096  0.86024867  0.82266694     0.16000
H389        H  0.42733468  0.90323442  0.68571857     0.15700
N390        N  0.32066898  0.93159305  0.70596257     0.74800
O391        O  0.52767261  0.84038800  0.82195851    -0.38700
O392        O  0.46139968  0.78932014  0.81204635    -0.38600
O393        O  0.34565861  0.96594687  0.69631305    -0.39300
O394        O  0.28390943  0.91518671  0.68000928    -0.39400
C395        C  0.16298740  0.61610769  0.79247827    -0.11700
C396        C  0.22476083  0.61962283  0.77414302     0.05400
C397        C  0.21846965  0.63757109  0.73456311    -0.06900
C398        C  0.15746495  0.65105364  0.71759393    -0.07700
C399        C  0.09662918  0.64235011  0.73418341    -0.02200
C400        C  0.10115188  0.62663841  0.77427110     0.04600
N401        N  0.04523459  0.62266044  0.79885674     0.67100
H402        H  0.15986074  0.60296633  0.82117452     0.16000
H403        H  0.15768205  0.66514190  0.68813032     0.15700
N404        N  0.27009450  0.63830001  0.70729048     0.74800
O405        O  0.03202778  0.58683412  0.81270037    -0.38700
O406        O  0.52790400  0.65875195  0.81842661    -0.38600
O407        O  0.27372983  0.60777646  0.68392514    -0.39300
O408        O  0.28693557  0.67399418  0.69472131    -0.39400
C409        C  0.45645369  0.60188303  0.73520706    -0.11700
C410        C  0.46824027  0.64481553  0.72992584     0.05400
C411        C  0.41753213  0.67269557  0.74381175    -0.06900
C412        C  0.36567150  0.65675792  0.76644369    -0.07700
C413        C  0.35394917  0.61352749  0.77161143    -0.02200
C414        C  0.39922778  0.58641203  0.75216523     0.04600
N415        N  0.38181329  0.54572753  0.73958289     0.67100
H416        H  0.49045915  0.57936498  0.72291610     0.16000
H417        H  0.32997305  0.67881491  0.77777259     0.15700
N418        N  0.41252641  0.71653570  0.73345203     0.74800
O419        O  0.42133179  0.51546708  0.74698914    -0.38700
O420        O  0.34468899  0.54418625  0.70896778    -0.38600
O421        O  0.40349224  0.72766839  0.69742065    -0.39300
O422        O  0.39755642  0.74231963  0.75998563    -0.39400
C423        C  0.23838705  0.53028443  0.77688875    -0.11700
C424        C  0.28823820  0.54994333  0.79845219     0.05400
C425        C  0.33590255  0.52194121  0.81758404    -0.06900
C426        C  0.32919540  0.97642155  0.81432878    -0.07700
C427        C  0.27791909  0.95629965  0.79285173    -0.02200
C428        C  0.23035115  0.98474194  0.77473199     0.04600
N429        N  0.18703216  0.97449137  0.74277118     0.67100
H430        H  0.20351408  0.54844292  0.75874725     0.16000
H431        H  0.36822077  0.95702210  0.82786425     0.15700
N432        N  0.39176981  0.53748797  0.83942101     0.74800
O433        O  0.12691872  0.98045003  0.74903551    -0.38700
O434        O  0.20662117  0.98386103  0.70845891    -0.38600
O435        O  0.44828894  0.52430844  0.83089023    -0.39300
O436        O  0.38416013  0.55324577  0.87329762    -0.39400
C437        C  0.06046683  0.90894162  0.61174379    -0.11700
C438        C  0.50954091  0.90217251  0.58670519     0.05400
C439        C  0.46383524  0.87248712  0.59979746    -0.06900
C440        C  0.47248278  0.85313880  0.63828978    -0.07700
C441        C  0.52325097  0.86542346  0.66605990    -0.02200
C442        C  0.06407319  0.89568944  0.65130081     0.04600
N443        N  0.09965775  0.92318256  0.67579261     0.67100
H444        H  0.09545320  0.93232156  0.60261794     0.16000
H445        H  0.43751670  0.82987054  0.64746174     0.15700
N446        N  0.41062243  0.86039552  0.57407431     0.74800
O447        O  0.16031693  0.92423286  0.67032675    -0.38700
O448        O  0.07029858  0.95665086  0.68494020    -0.38600
O449        O  0.42121570  0.83545165  0.54600576    -0.39300
O450        O  0.35233664  0.86915621  0.58304493    -0.39400
C451        C  0.07885990  0.59927277  0.65808617    -0.11700
C452        C  0.03009540  0.63042811  0.66666693     0.05400
C453        C  0.48040739  0.63531884  0.63708678    -0.06900
C454        C  0.47777231  0.60947768  0.60310459    -0.07700
C455        C  0.02350131  0.57775901  0.59591100    -0.02200
C456        C  0.07765894  0.57523095  0.62299616     0.04600
N457        N  0.13180248  0.54749816  0.61603569     0.67100
H458        H  0.11834881  0.59121950  0.67894676     0.16000
H459        H  0.43613573  0.61291579  0.58234643     0.15700
N460        N  0.42430352  0.66131248  0.64255188     0.74800
O461        O  0.18421996  0.56193053  0.60258845    -0.38700
O462        O  0.12950935  0.50939861  0.62658997    -0.38600
O463        O  0.42064508  0.69640189  0.62461973    -0.39300
O464        O  0.37164550  0.64251048  0.64832209    -0.39400
C465        C  0.02811022  0.88622672  0.34422191    -0.11700
C466        C  0.97020199  0.86447386  0.33363241     0.05400
C467        C  0.42574304  0.86194404  0.36455446    -0.06900
C468        C  0.43138275  0.88780870  0.39843840    -0.07700
C469        C  0.98236936  0.91267962  0.40552398    -0.02200
C470        C  0.03448096  0.91000140  0.37875619     0.04600
N471        N  0.09445643  0.93199138  0.38528334     0.67100
H472        H  0.07086657  0.88479463  0.32610523     0.16000
H473        H  0.39359080  0.88676858  0.42050858     0.15700
N474        N  0.37302358  0.83279590  0.36281370     0.74800
O475        O  0.13676123  0.91741228  0.41030843    -0.38700
O476        O  0.11144289  0.95909800  0.35987893    -0.38600
O477        O  0.38554111  0.79474029  0.37129454    -0.39300
O478        O  0.31471006  0.84616893  0.36561417    -0.39400
C479        C  0.44340805  0.61274962  0.40317523    -0.11700
C480        C  0.50092775  0.58923954  0.41200898     0.05400
C481        C  0.05264419  0.59471180  0.38685492    -0.06900
C482        C  0.04452157  0.61809484  0.35110569    -0.07700
C483        C  0.48417635  0.63602851  0.33795279    -0.02200
C484        C  0.43626005  0.63807476  0.36827806     0.04600
N485        N  0.38059751  0.66590599  0.36517035     0.67100
H486        H  0.40365702  0.61203397  0.42395187     0.16000
H487        H  0.08777645  0.62137166  0.33360603     0.15700
N488        N  0.11577413  0.57628187  0.39643352     0.74800
O489        O  0.32428106  0.65159682  0.37134532    -0.38700
O490        O  0.38975799  0.70451338  0.37034229    -0.38600
O491        O  0.14084632  0.55037156  0.37294687    -0.39300
O492        O  0.15133544  0.59193316  0.42364945    -0.39400
C493        C  0.01506322  0.72574489  0.31499157    -0.11700
C494        C  0.46516364  0.70292274  0.29623777     0.05400
C495        C  0.40773601  0.72773342  0.28501074    -0.06900
C496        C  0.40742985  0.77169844  0.28706115    -0.07700
C497        C  0.96190604  0.79471747  0.29788451    -0.02200
C498        C  0.01429409  0.77037863  0.31659942     0.04600
N499        N  0.06701061  0.78990878  0.33802415     0.67100
H500        H  0.05700469  0.70888783  0.32832775     0.16000
H501        H  0.36127599  0.78738753  0.27961884     0.15700
N502        N  0.34656293  0.71057453  0.27251988     0.74800
O503        O  0.55918455  0.80054804  0.37385849    -0.38700
O504        O  0.12494899  0.78481587  0.32646044    -0.38600
O505        O  0.30864342  0.69707792  0.29868820    -0.39300
O506        O  0.82222385  0.72273383  0.23823670    -0.39400
C507        C  0.09113268  0.91583430  0.23863160    -0.11700
C508        C  0.14185674  0.88781600  0.22744677     0.05400
C509        C  0.13128770  0.84452414  0.23658393    -0.06900
C510        C  0.07121749  0.83083205  0.25201413    -0.07700
C511        C  0.02101989  0.85883338  0.26385498    -0.02200
C512        C  0.03120971  0.90203805  0.25431060     0.04600
N513        N  0.98101927  0.93291514  0.26055940     0.67100
H514        H  0.09650654  0.94922786  0.23533441     0.16000
H515        H  0.06555453  0.79739900  0.25481630     0.15700
N516        N  0.18120041  0.81336973  0.23042599     0.74800
O517        O  0.98431339  0.95569433  0.29098461    -0.38700
O518        O  0.94346791  0.94401643  0.23153693    -0.38600
O519        O  0.21980967  0.80312038  0.25921603    -0.39300
O520        O  0.17611631  0.78923323  0.20105060    -0.39400
C521        C  0.31494614  0.85724672  0.21094921    -0.11700
C522        C  0.26809276  0.88420700  0.22835043     0.05400
C523        C  0.28481545  0.89625507  0.26817543    -0.06900
C524        C  0.34770852  0.88668706  0.28588223    -0.07700
C525        C  0.39522748  0.86027116  0.26805224    -0.02200
C526        C  0.37755604  0.84755644  0.22849553     0.04600
N527        N  0.42412425  0.82786750  0.20337604     0.67100
H528        H  0.30435593  0.84261535  0.18281232     0.16000
H529        H  0.35834159  0.90131178  0.31395366     0.15700
N530        N  0.23904729  0.91946001  0.29115482     0.74800
O531        O  0.43911670  0.78960013  0.20844965    -0.38700
O532        O  0.43452379  0.84493737  0.16998659    -0.38600
O533        O  0.19535817  0.89973505  0.30921833    -0.39300
O534        O  0.25337873  0.95582356  0.30251380    -0.39400
C535        C  0.11147870  0.58206846  0.24495667    -0.11700
C536        C  0.15862204  0.61046868  0.23054743     0.05400
C537        C  0.14320835  0.65384733  0.23805894    -0.06900
C538        C  0.08210579  0.66619026  0.25431553    -0.07700
C539        C  0.03525174  0.63767770  0.26835416    -0.02200
C540        C  0.05096219  0.59436210  0.26157452     0.04600
N541        N  0.00551042  0.56143535  0.26937910     0.67100
H542        H  0.12104412  0.54876856  0.24479096     0.16000
H543        H  0.07242501  0.69942289  0.25575015     0.15700
N544        N  0.18972553  0.68663506  0.23268618     0.74800
O545        O  0.99729896  0.53357634  0.24344674    -0.38700
O546        O  0.48851572  0.55424792  0.30448645    -0.38600
O547        O  0.21536977  0.69289893  0.19940490    -0.39300
O548        O  0.19273976  0.71530453  0.25821281    -0.39400
C549        C  0.36209375  0.61009954  0.28982341    -0.11700
C550        C  0.41059356  0.63397753  0.27052337     0.05400
C551        C  0.39698715  0.64305497  0.22930689    -0.06900
C552        C  0.33573790  0.63358557  0.21113065    -0.07700
C553        C  0.28635501  0.61048467  0.23040768    -0.02200
C554        C  0.30024102  0.60087949  0.27157053     0.04600
N555        N  0.25188455  0.58209211  0.29599101     0.67100
H556        H  0.37030012  0.59835869  0.31978986     0.16000
H557        H  0.32803141  0.64631418  0.18151877     0.15700
N558        N  0.44399920  0.66351977  0.20508527     0.74800
O559        O  0.21191440  0.60582665  0.31324000    -0.38700
O560        O  0.26138056  0.54529666  0.30963749    -0.38600
O561        O  0.98078160  0.64031991  0.18333610    -0.39300
O562        O  0.43656737  0.70203109  0.19656598    -0.39400
C563        C  0.26680786  0.97319568  0.21355833    -0.11700
C564        C  0.20955785  0.95286913  0.19990830     0.05400
C565        C  0.16239413  0.98047980  0.18015647    -0.06900
C566        C  0.17088151  0.52494459  0.18298273    -0.07700
C567        C  0.22369855  0.54426816  0.20374093    -0.02200
C568        C  0.27525786  0.51583267  0.21722604     0.04600
N569        N  0.33933058  0.52879352  0.22986305     0.67100
H570        H  0.31082709  0.95534062  0.22113238     0.16000
H571        H  0.13332561  0.54476883  0.16843713     0.15700
N572        N  0.10924011  0.96495928  0.15625294     0.74800
O573        O  0.36104124  0.51683595  0.26392562    -0.38700
O574        O  0.38046951  0.53648303  0.20351480    -0.38600
O575        O  0.05132951  0.97592539  0.16428533    -0.39300
O576        O  0.12067155  0.95359651  0.12117896    -0.39400
C577        C  0.16426778  0.63621799  0.14724968    -0.11700
C578        C  0.21841458  0.61132212  0.16197776     0.05400
C579        C  0.26887065  0.60455097  0.13360312    -0.06900
C580        C  0.27454529  0.63212626  0.10060839    -0.07700
C581        C  0.22701397  0.66305145  0.09150336    -0.02200
C582        C  0.16903699  0.66286419  0.11355290     0.04600
N583        N  0.11649076  0.69197846  0.10428332     0.67100
H584        H  0.11910800  0.63803809  0.16321063     0.16000
H585        H  0.31636879  0.62895439  0.08155421     0.15700
N586        N  0.31703942  0.57163863  0.13816002     0.74800
O587        O  0.06654710  0.68008181  0.08468724    -0.38700
O588        O  0.11567557  0.72739834  0.12060917    -0.38600
O589        O  0.29974825  0.53456467  0.13111468    -0.39300
O590        O  0.37684871  0.58058358  0.13489987    -0.39400
C591        C  0.16292723  0.83845611  0.10651246    -0.11700
C592        C  0.22193768  0.84124814  0.08677401     0.05400
C593        C  0.26775097  0.87092738  0.10030698    -0.06900
C594        C  0.25593014  0.89401766  0.13507305    -0.07700
C595        C  0.20181961  0.88559950  0.15963335    -0.02200
C596        C  0.15119374  0.86034248  0.14169841     0.04600
N597        N  0.08660351  0.85646925  0.15688586     0.67100
H598        H  0.12525931  0.81791405  0.09493583     0.16000
H599        H  0.29341025  0.91536630  0.14536902     0.15700
N600        N  0.32713581  0.87749594  0.07961796     0.74800
O601        O  0.04864196  0.88808980  0.15627478    -0.38700
O602        O  0.06186262  0.82044932  0.15928313    -0.38600
O603        O  0.33108289  0.90827500  0.05567586    -0.39300
O604        O  0.37820661  0.85647794  0.08955003    -0.39400
C605        C  0.24272199  0.63428408  0.90365332    -0.11700
C606        C  0.28955587  0.66410315  0.91309576     0.05400
C607        C  0.34565451  0.66608711  0.88944959    -0.06900
C608        C  0.34810020  0.64326577  0.85381530    -0.07700
C609        C  0.29611513  0.61705891  0.84060927    -0.02200
C610        C  0.24908161  0.60814551  0.87065581     0.04600
N611        N  0.21811206  0.56831246  0.87381549     0.67100
H612        H  0.20359734  0.62867651  0.92423386     0.16000
H613        H  0.39291126  0.64550372  0.83771537     0.15700
N614        N  0.40055234  0.69115700  0.90084464     0.74800
O615        O  0.25410424  0.53808510  0.88579557    -0.38700
O616        O  0.15785798  0.56692166  0.88157748    -0.38600
O617        O  0.43901891  0.67842090  0.92885115    -0.39300
O618        O  0.41817879  0.72057247  0.87807335    -0.39400
C619        C  0.27421808  0.87553731  0.90674930    -0.11700
C620        C  0.27199838  0.83193092  0.90480263     0.05400
C621        C  0.26709610  0.81336760  0.86718705    -0.06900
C622        C  0.26805486  0.83857223  0.83274776    -0.07700
C623        C  0.27274356  0.88298156  0.83304812    -0.02200
C624        C  0.27156144  0.90120671  0.87190279     0.04600
N625        N  0.25984114  0.94469420  0.87786458     0.67100
H626        H  0.27330792  0.88998845  0.93581952     0.16000
H627        H  0.26370032  0.82260730  0.80507985     0.15700
N628        N  0.26000016  0.76888070  0.86304008     0.74800
O629        O  0.20416914  0.96008609  0.86794440    -0.38700
O630        O  0.29524642  0.96328495  0.90336716    -0.38600
O631        O  0.21081891  0.75108904  0.87730315    -0.39300
O632        O  0.29359603  0.74959901  0.83786774    -0.39400
O633        O  0.71059849  0.20632814  0.95500329    -0.72300
O634        O  0.67992947  0.29882381  0.03387604    -0.73300
O635        O  0.70463946  0.29439875  0.95038146    -0.61900
O636        O  0.68064386  0.21003693  0.03787687    -0.70300
O637        O  0.78758714  0.20960225  0.05192735    -0.69900
O638        O  0.81190610  0.29699453  0.96376333    -0.61100
O639        O  0.78680722  0.29978544  0.04786660    -0.73700
O640        O  0.81761607  0.20897928  0.96823211    -0.72400
Cu641      Cu  0.69035123  0.25243728  0.99387967     1.04600
Cu642      Cu  0.80474361  0.25391323  0.00866945     1.02500
C643        C  0.76948427  0.19442237  0.94793281     0.93900
C644        C  0.72876509  0.31343873  0.05391628     0.93000
C645        C  0.76138379  0.30760522  0.94206569     0.85200
C646        C  0.72974924  0.19635933  0.05892921     0.91400
C647        C  0.71659264  0.09481551  0.20614391    -0.01900
C648        C  0.70241687  0.40319156  0.20453093    -0.01900
C649        C  0.96702281  0.15265106  0.29266776    -0.01900
C650        C  0.46059282  0.34474488  0.29147206    -0.01900
O651        O  0.55398928  0.04260903  0.45862667    -0.72300
O652        O  0.55537148  0.44543649  0.53824070    -0.73300
O653        O  0.54634594  0.45282457  0.45410697    -0.61900
O654        O  0.56539761  0.03424624  0.54484224    -0.70300
O655        O  0.95251751  0.03974877  0.54808322    -0.69900
O656        O  0.93549296  0.45539117  0.45664122    -0.61100
O657        O  0.94497546  0.44887670  0.54277694    -0.73700
O658        O  0.94096885  0.04520035  0.46088852    -0.72400
Cu659      Cu  0.55820984  0.99406797  0.49805439     1.04600
Cu660      Cu  0.93806025  0.99746472  0.50233824     1.04300
C661        C  0.99465389  0.05769274  0.44594064     0.93900
C662        C  0.00024065  0.43180699  0.55316880     0.93000
C663        C  0.98728451  0.44133848  0.44021756     0.85200
C664        C  0.00991937  0.04973833  0.56149642     0.91400
C665        C  0.78340506  0.09894161  0.79906643    -0.01900
C666        C  0.77610920  0.40689456  0.79147004    -0.01900
C667        C  0.52510350  0.15438490  0.71063385    -0.01900
C668        C  0.02646104  0.34608375  0.71220259    -0.01900
C669        C  0.53943763  0.22499419  0.74293002    -0.11700
C670        C  0.53059479  0.20350041  0.70674999     0.05400
C671        C  0.03591089  0.22976335  0.67096491    -0.06900
C672        C  0.03435568  0.27410776  0.67389991    -0.07700
C673        C  0.03499353  0.29580465  0.71090667    -0.02200
C674        C  0.55079662  0.26798071  0.74519693     0.04600
N675        N  0.59584873  0.27892429  0.77727486     0.67100
H676        H  0.54467400  0.20719154  0.77040770     0.16000
H677        H  0.03885519  0.29094600  0.64608482     0.15700
N678        N  0.04733007  0.21246364  0.63240050     0.74800
O679        O  0.58429150  0.26589381  0.81216294    -0.38700
O680        O  0.65560554  0.28142973  0.76905168    -0.38600
O681        O  0.01729270  0.22803303  0.60199273    -0.39300
O682        O  0.09919202  0.19132578  0.62727557    -0.39400
C683        C  0.65019004  0.34817084  0.72016588    -0.11700
C684        C  0.58932250  0.36202127  0.73465683     0.05400
C685        C  0.59195022  0.39113686  0.76674968    -0.06900
C686        C  0.65283659  0.40064434  0.78474369    -0.07700
C687        C  0.71369752  0.38988791  0.76835912    -0.02200
C688        C  0.71130913  0.36035771  0.73623149     0.04600
N689        N  0.76761391  0.33899184  0.72057767     0.67100
H690        H  0.65023414  0.32634274  0.69567998     0.16000
H691        H  0.65271398  0.42106221  0.81019621     0.15700
N692        N  0.53637449  0.41571616  0.77912888     0.74800
O693        O  0.79890980  0.31211440  0.74197329    -0.38700
O694        O  0.77226027  0.33650754  0.68317476    -0.38600
O695        O  0.02956904  0.42557518  0.81375779    -0.39300
O696        O  0.50695298  0.43994813  0.75416909    -0.39400
C697        C  0.88997713  0.36795928  0.79264945    -0.11700
C698        C  0.84210397  0.39276919  0.77151485     0.05400
C699        C  0.85797973  0.40354765  0.73180629    -0.06900
C700        C  0.91637165  0.38916912  0.71529992    -0.07700
C701        C  0.96104749  0.35990884  0.73434264    -0.02200
C702        C  0.94498398  0.34961964  0.77477288     0.04600
N703        N  0.98493560  0.32357607  0.80080416     0.67100
H704        H  0.88607184  0.36190828  0.82428033     0.16000
H705        H  0.92716032  0.40480325  0.68765789     0.15700
N706        N  0.81600379  0.42937723  0.70671654     0.74800
O707        O  0.02767587  0.34090499  0.82266676    -0.38700
O708        O  0.95965127  0.29047102  0.81414638    -0.38600
O709        O  0.81737290  0.46806947  0.71223735    -0.39300
O710        O  0.80150411  0.41722837  0.67194758    -0.39400
C711        C  0.65468015  0.11413691  0.79510518    -0.11700
C712        C  0.71664388  0.11847838  0.77706532     0.05400
C713        C  0.71078100  0.13764505  0.73797310    -0.06900
C714        C  0.65000621  0.15161537  0.72108601    -0.07700
C715        C  0.58916161  0.14181770  0.73706253    -0.02200
C716        C  0.59310671  0.12525754  0.77682496     0.04600
N717        N  0.53691202  0.12116288  0.80115289     0.67100
H718        H  0.65121449  0.09928615  0.82277540     0.16000
H719        H  0.65020343  0.16636238  0.69178239     0.15700
N720        N  0.76196212  0.13749398  0.71043238     0.74800
O721        O  0.52488877  0.08564493  0.81610309    -0.38700
O722        O  0.01520551  0.15558493  0.81752266    -0.38600
O723        O  0.76586480  0.10585808  0.68843450    -0.39300
O724        O  0.77876755  0.17268245  0.69655150    -0.39400
C725        C  0.94688256  0.10084655  0.73633532    -0.11700
C726        C  0.95954378  0.14379340  0.73177112     0.05400
C727        C  0.90963314  0.17176126  0.74640666    -0.06900
C728        C  0.85783104  0.15587692  0.76913189    -0.07700
C729        C  0.84567800  0.11265348  0.77413951    -0.02200
C730        C  0.88990176  0.08547309  0.75380793     0.04600
N731        N  0.87345511  0.04375858  0.74361105     0.67100
H732        H  0.98044961  0.07837379  0.72358661     0.16000
H733        H  0.82270721  0.17804915  0.78087828     0.15700
N734        N  0.90565541  0.21580694  0.73693767     0.74800
O735        O  0.91654940  0.01491347  0.74736721    -0.38700
O736        O  0.82441692  0.03863997  0.72056628    -0.38600
O737        O  0.89529679  0.22775775  0.70122581    -0.39300
O738        O  0.89314640  0.24123738  0.76425773    -0.39400
C739        C  0.73073388  0.02889971  0.78215856    -0.11700
C740        C  0.78122711  0.04923428  0.80250198     0.05400
C741        C  0.83129649  0.02185975  0.82028842    -0.06900
C742        C  0.82991059  0.47682376  0.81439997    -0.07700
C743        C  0.77699883  0.45728739  0.79368677    -0.02200
C744        C  0.73051939  0.48654591  0.77510185     0.04600
N745        N  0.68048300  0.47608941  0.74692085     0.67100
H746        H  0.69338855  0.04652702  0.76556703     0.16000
H747        H  0.86780815  0.45696090  0.82852588     0.15700
N748        N  0.88669498  0.03789689  0.84218110     0.74800
O749        O  0.62250641  0.48280087  0.75772396    -0.38700
O750        O  0.69241438  0.48463139  0.71100550    -0.38600
O751        O  0.94321586  0.02374033  0.83491311    -0.39300
O752        O  0.87818048  0.05476899  0.87545966    -0.39400
C753        C  0.56559885  0.40698994  0.61233081    -0.11700
C754        C  0.00745901  0.40193442  0.58793879     0.05400
C755        C  0.95937311  0.37469295  0.60244279    -0.06900
C756        C  0.96909351  0.35455612  0.64042774    -0.07700
C757        C  0.02237593  0.36489749  0.66720797    -0.02200
C758        C  0.56883779  0.39345081  0.65192592     0.04600
N759        N  0.60749435  0.41951670  0.67636741     0.67100
H760        H  0.60280408  0.42866660  0.60282626     0.16000
H761        H  0.93220065  0.33298729  0.65046800     0.15700
N762        N  0.90135841  0.36670034  0.57908833     0.74800
O763        O  0.66806671  0.42060800  0.66983830    -0.38700
O764        O  0.57924859  0.45183629  0.68926008    -0.38600
O765        O  0.90345724  0.34058455  0.55121951    -0.39300
O766        O  0.84655936  0.38062414  0.59005925    -0.39400
C767        C  0.57591838  0.09964687  0.65975381    -0.11700
C768        C  0.52520736  0.12924484  0.66903980     0.05400
C769        C  0.97102169  0.13351183  0.63940274    -0.06900
C770        C  0.96841097  0.10787575  0.60518725    -0.07700
C771        C  0.52194281  0.07836508  0.59680687    -0.02200
C772        C  0.57620051  0.07654288  0.62395368     0.04600
N773        N  0.63208876  0.05061507  0.61620490     0.67100
H774        H  0.61598832  0.09227240  0.68039956     0.16000
H775        H  0.92565668  0.11039518  0.58520950     0.15700
N776        N  0.91356537  0.15771028  0.64617549     0.74800
O777        O  0.68038145  0.06612663  0.59879889    -0.38700
O778        O  0.63680793  0.01405473  0.63108367    -0.38600
O779        O  0.90687000  0.19320312  0.62924369    -0.39300
O780        O  0.86266522  0.13713466  0.65211366    -0.39400
C781        C  0.52875296  0.38664787  0.34411878    -0.11700
C782        C  0.47039922  0.36494489  0.33420662     0.05400
C783        C  0.92319262  0.36110116  0.36488176    -0.06900
C784        C  0.92892654  0.38668995  0.39895942    -0.07700
C785        C  0.48560052  0.41271960  0.40614750    -0.02200
C786        C  0.53646050  0.41029444  0.37860174     0.04600
N787        N  0.59633338  0.43259990  0.38422657     0.67100
H788        H  0.57091450  0.38527743  0.32554135     0.16000
H789        H  0.89145232  0.38527817  0.42121174     0.15700
N790        N  0.87077044  0.33175004  0.36311986     0.74800
O791        O  0.64101032  0.41728942  0.40724424    -0.38700
O792        O  0.61025596  0.46134849  0.35968787    -0.38600
O793        O  0.88344574  0.29389312  0.37236809    -0.39300
O794        O  0.81225756  0.34498067  0.36517991    -0.39400
C795        C  0.93599894  0.11273037  0.40286745    -0.11700
C796        C  0.99316842  0.08895138  0.41185501     0.05400
C797        C  0.54989155  0.09573814  0.38656121    -0.06900
C798        C  0.54082897  0.11869309  0.35066510    -0.07700
C799        C  0.97725502  0.13544741  0.33748843    -0.02200
C800        C  0.92916989  0.13779518  0.36776328     0.04600
N801        N  0.87348959  0.16557882  0.36436790     0.67100
H802        H  0.89624498  0.11238703  0.42365518     0.16000
H803        H  0.58367363  0.12189568  0.33281049     0.15700
N804        N  0.61325888  0.07757113  0.39578826     0.74800
O805        O  0.81706645  0.15112256  0.36992602    -0.38700
O806        O  0.88240427  0.20412484  0.37004604    -0.38600
O807        O  0.63525763  0.04863271  0.37439086    -0.39300
O808        O  0.65180940  0.09592997  0.41966666    -0.39400
C809        C  0.51209173  0.22575217  0.31515081    -0.11700
C810        C  0.95974213  0.20262585  0.29612698     0.05400
C811        C  0.90274298  0.22786008  0.28493339    -0.06900
C812        C  0.90328647  0.27178254  0.28719956    -0.07700
C813        C  0.46009047  0.29511025  0.29858517    -0.02200
C814        C  0.51238699  0.27035418  0.31682282     0.04600
N815        N  0.56616846  0.28939827  0.33769937     0.67100
H816        H  0.55400011  0.20852518  0.32807064     0.16000
H817        H  0.85737069  0.28781240  0.27987874     0.15700
N818        N  0.84119068  0.21122310  0.27234714     0.74800
O819        O  0.05545547  0.29995495  0.37379422    -0.38700
O820        O  0.62376857  0.28297305  0.32606274    -0.38600
O821        O  0.80287592  0.19810654  0.29846340    -0.39300
O822        O  0.31684400  0.22456932  0.24024135    -0.39400
C823        C  0.58928447  0.41632836  0.23897773    -0.11700
C824        C  0.64012093  0.38835398  0.22800898     0.05400
C825        C  0.62960211  0.34500894  0.23699161    -0.06900
C826        C  0.56974394  0.33125018  0.25254231    -0.07700
C827        C  0.51942245  0.35917645  0.26420118    -0.02200
C828        C  0.52929656  0.40239579  0.25445841     0.04600
N829        N  0.47871555  0.43310740  0.26029428     0.67100
H830        H  0.59458618  0.44971629  0.23547356     0.16000
H831        H  0.56422811  0.29781987  0.25544248     0.15700
N832        N  0.67927191  0.31382633  0.23039682     0.74800
O833        O  0.48052776  0.45546023  0.29103693    -0.38700
O834        O  0.44220283  0.44442427  0.23087027    -0.38600
O835        O  0.71755248  0.30281889  0.25910670    -0.39300
O836        O  0.67429903  0.29043032  0.20046965    -0.39400
C837        C  0.81263129  0.35742437  0.21105223    -0.11700
C838        C  0.76593174  0.38420962  0.22874202     0.05400
C839        C  0.78266410  0.39602919  0.26860734    -0.06900
C840        C  0.84549569  0.38637464  0.28618492    -0.07700
C841        C  0.89290999  0.36010197  0.26814399    -0.02200
C842        C  0.87527919  0.34759285  0.22846317     0.04600
N843        N  0.92167816  0.32787411  0.20315769     0.67100
H844        H  0.80182678  0.34311204  0.18278303     0.16000
H845        H  0.85617268  0.40082794  0.31433439     0.15700
N846        N  0.73715789  0.41941955  0.29160987     0.74800
O847        O  0.94055076  0.29050596  0.20987305    -0.38700
O848        O  0.92945378  0.34360859  0.16885794    -0.38600
O849        O  0.69381610  0.39982461  0.31009386    -0.39300
O850        O  0.75145031  0.45595378  0.30249554    -0.39400
C851        C  0.60575873  0.08243985  0.24383823    -0.11700
C852        C  0.65297749  0.11086473  0.22972199     0.05400
C853        C  0.63772248  0.15423812  0.23742304    -0.06900
C854        C  0.57673386  0.16656063  0.25374497    -0.07700
C855        C  0.53002292  0.13806312  0.26793604    -0.02200
C856        C  0.54551150  0.09472826  0.26088591     0.04600
N857        N  0.50021295  0.06176936  0.26888199     0.67100
H858        H  0.61519144  0.04914988  0.24309671     0.16000
H859        H  0.56703537  0.19979468  0.25510014     0.15700
N860        N  0.68422338  0.18706236  0.23206512     0.74800
O861        O  0.49325168  0.03319924  0.24353274    -0.38700
O862        O  0.97979191  0.05445223  0.30277500    -0.38600
O863        O  0.70986943  0.19338374  0.19879292    -0.39300
O864        O  0.68720272  0.21571475  0.25760870    -0.39400
C865        C  0.85576210  0.11051999  0.28887914    -0.11700
C866        C  0.90445158  0.13430679  0.26974621     0.05400
C867        C  0.89086511  0.14390997  0.22859377    -0.06900
C868        C  0.82959807  0.13459694  0.21029154    -0.07700
C869        C  0.78020032  0.11144692  0.22948071    -0.02200
C870        C  0.79390651  0.10165939  0.27060910     0.04600
N871        N  0.74571353  0.08243678  0.29483306     0.67100
H872        H  0.86396217  0.09836771  0.31870157     0.16000
H873        H  0.82200060  0.14721275  0.18062525     0.15700
N874        N  0.93783903  0.16473352  0.20460025     0.74800
O875        O  0.70566563  0.10582874  0.31240832    -0.38700
O876        O  0.75560453  0.04553978  0.30810443    -0.38600
O877        O  0.47546041  0.14367391  0.18429893    -0.39300
O878        O  0.92802930  0.20266557  0.19445378    -0.39400
C879        C  0.76725702  0.47275879  0.21404283    -0.11700
C880        C  0.70902197  0.45321236  0.20072661     0.05400
C881        C  0.66277067  0.48128404  0.18082723    -0.06900
C882        C  0.66740667  0.02479483  0.18197365    -0.07700
C883        C  0.71945088  0.04483690  0.20276232    -0.02200
C884        C  0.77238549  0.01707992  0.21574556     0.04600
N885        N  0.83578230  0.03094191  0.22864948     0.67100
H886        H  0.81078016  0.45440620  0.22155052     0.16000
H887        H  0.62897224  0.04410683  0.16766613     0.15700
N888        N  0.60887408  0.46639649  0.15712965     0.74800
O889        O  0.85834767  0.01822026  0.26228273    -0.38700
O890        O  0.87611532  0.04105614  0.20255129    -0.38600
O891        O  0.55141241  0.47808116  0.16542597    -0.39300
O892        O  0.61953063  0.45516605  0.12191495    -0.39400
C893        C  0.65702940  0.13682213  0.14682031    -0.11700
C894        C  0.71175758  0.11212617  0.16115352     0.05400
C895        C  0.76193132  0.10594456  0.13254089    -0.06900
C896        C  0.76699126  0.13405908  0.09996223    -0.07700
C897        C  0.71932089  0.16510106  0.09163839    -0.02200
C898        C  0.66144203  0.16433128  0.11372840     0.04600
N899        N  0.60893030  0.19378075  0.10535710     0.67100
H900        H  0.61192034  0.13809187  0.16287005     0.16000
H901        H  0.80851789  0.13127087  0.08062268     0.15700
N902        N  0.81019204  0.07299190  0.13631089     0.74800
O903        O  0.55474753  0.18117611  0.09130428    -0.38700
O904        O  0.61330581  0.23090316  0.11764367    -0.38600
O905        O  0.79260100  0.03594333  0.12943934    -0.39300
O906        O  0.86981663  0.08191897  0.13213912    -0.39400
C907        C  0.65818414  0.34103299  0.10648539    -0.11700
C908        C  0.71706876  0.34357153  0.08662953     0.05400
C909        C  0.76376583  0.37259033  0.10029586    -0.06900
C910        C  0.75308163  0.39503616  0.13550648    -0.07700
C911        C  0.69917279  0.38660073  0.16018794    -0.02200
C912        C  0.64754127  0.36227237  0.14209747     0.04600
N913        N  0.58319177  0.35846691  0.15767949     0.67100
H914        H  0.61988628  0.32103187  0.09478299     0.16000
H915        H  0.79118277  0.41587842  0.14592235     0.15700
N916        N  0.82282223  0.37917084  0.07926025     0.74800
O917        O  0.54517724  0.39007305  0.15713263    -0.38700
O918        O  0.55847252  0.32244997  0.16011889    -0.38600
O919        O  0.82765164  0.41126484  0.05703661    -0.39300
O920        O  0.87332120  0.35705879  0.08794253    -0.39400
C921        C  0.73354839  0.13580170  0.90537668    -0.11700
C922        C  0.78129940  0.16499640  0.91480133     0.05400
C923        C  0.83820991  0.16565646  0.89183947    -0.06900
C924        C  0.84053783  0.14256077  0.85642905    -0.07700
C925        C  0.78801760  0.11680626  0.84330948    -0.02200
C926        C  0.74030115  0.10872642  0.87316673     0.04600
N927        N  0.70892190  0.06903533  0.87706788     0.67100
H928        H  0.69372724  0.13118620  0.92567858     0.16000
H929        H  0.88567950  0.14393458  0.84055226     0.15700
N930        N  0.89434084  0.18916586  0.90404793     0.74800
O931        O  0.74504943  0.03784336  0.88608256    -0.38700
O932        O  0.64961814  0.06793913  0.88706135    -0.38600
O933        O  0.93261706  0.17440849  0.93127062    -0.39300
O934        O  0.91272873  0.21951010  0.88267979    -0.39400
C935        C  0.76946737  0.37666422  0.90738839    -0.11700
C936        C  0.76789082  0.33308973  0.90541565     0.05400
C937        C  0.76546876  0.31433378  0.86786702    -0.06900
C938        C  0.76757698  0.33944803  0.83347598    -0.07700
C939        C  0.77120990  0.38389872  0.83386026    -0.02200
C940        C  0.76850091  0.40221203  0.87255065     0.04600
N941        N  0.75766616  0.44577457  0.87826236     0.67100
H942        H  0.76717250  0.39116278  0.93639446     0.16000
H943        H  0.76522296  0.32342328  0.80573704     0.15700
N944        N  0.75959180  0.26977611  0.86373851     0.74800
O945        O  0.70226784  0.46147342  0.86816129    -0.38700
O946        O  0.79274809  0.46387125  0.90426428    -0.38600
O947        O  0.71036948  0.25154998  0.87744743    -0.39300
O948        O  0.79451204  0.25075370  0.83905636    -0.39400
O949        O  0.71733691  0.70506341  0.95364586    -0.72300
O950        O  0.68511098  0.79660016  0.03350447    -0.73300
O951        O  0.70918429  0.79323029  0.94980678    -0.61900
O952        O  0.68754906  0.70779313  0.03656504    -0.70300
O953        O  0.79436029  0.70806532  0.05079371    -0.69900
O954        O  0.81647212  0.79658166  0.96263529    -0.61100
O955        O  0.79200246  0.79851222  0.04717085    -0.73700
O956        O  0.82432538  0.70836405  0.96682108    -0.72400
Cu957      Cu  0.69626098  0.75067939  0.99298223     1.04600
Cu958      Cu  0.81060284  0.75298258  0.00756987     1.02500
C959        C  0.77639518  0.69359389  0.94647639     0.93900
C960        C  0.73371921  0.81156270  0.05352245     0.93000
C961        C  0.76547502  0.80694761  0.94118299     0.85200
C962        C  0.73669209  0.69436391  0.05769222     0.91400
C963        C  0.72194486  0.59467152  0.20625032    -0.01900
C964        C  0.70425185  0.90288511  0.20349530    -0.01900
C965        C  0.97241944  0.65255713  0.29288159    -0.01900
C966        C  0.46244056  0.84466475  0.29066927    -0.01900
O967        O  0.55692665  0.54095144  0.45837350    -0.72300
O968        O  0.55436269  0.94530524  0.53628852    -0.73300
O969        O  0.54545488  0.95460417  0.45260259    -0.61900
O970        O  0.56802039  0.53416622  0.54449786    -0.70300
O971        O  0.95781315  0.53939121  0.54747325    -0.69900
O972        O  0.93294070  0.95506207  0.45679309    -0.61100
O973        O  0.94194297  0.94861610  0.54298150    -0.73700
O974        O  0.94630572  0.54520813  0.46067308    -0.72400
Cu975      Cu  0.56008015  0.49315880  0.49875248     1.04600
Cu976      Cu  0.94218469  0.49753891  0.50202426     1.04300
C977        C  0.00015654  0.55726854  0.44563045     0.93900
C978        C  0.99758386  0.93189017  0.55310086     0.93000
C979        C  0.98526708  0.94159318  0.44047070     0.85200
C980        C  0.01540655  0.54889300  0.56078622     0.91400
C981        C  0.79074550  0.59897056  0.79709194    -0.01900
C982        C  0.77738454  0.90732230  0.79053299    -0.01900
C983        C  0.53373372  0.65634615  0.70813639    -0.01900
C984        C  0.02731234  0.84565960  0.71158314    -0.01900
C985        C  0.54728630  0.72658763  0.74054669    -0.11700
C986        C  0.54007486  0.70528586  0.70421641     0.05400
C987        C  0.04285459  0.72998063  0.66947808    -0.06900
C988        C  0.03927045  0.77424337  0.67290021    -0.07700
C989        C  0.03725302  0.79551923  0.71013708    -0.02200
C990        C  0.55569713  0.76974809  0.74331263     0.04600
N991        N  0.59967247  0.78138267  0.77565057     0.67100
H992        H  0.55259043  0.70874983  0.76789499     0.16000
H993        H  0.04451224  0.79153203  0.64539540     0.15700
N994        N  0.05619161  0.71326603  0.63081867     0.74800
O995        O  0.58835462  0.76779049  0.81038451    -0.38700
O996        O  0.65933666  0.78505276  0.76767982    -0.38600
O997        O  0.02951524  0.73026314  0.59996675    -0.39300
O998        O  0.10660194  0.69049565  0.62654498    -0.39400
C999        C  0.65177895  0.85113725  0.71731446    -0.11700
C1000       C  0.59083900  0.86418723  0.73239537     0.05400
C1001       C  0.59323674  0.89277858  0.76488478    -0.06900
C1002       C  0.65404865  0.90203965  0.78312264    -0.07700
C1003       C  0.71504378  0.89083563  0.76708043    -0.02200
C1004       C  0.71283601  0.86196225  0.73445718     0.04600
N1005       N  0.76917684  0.83983072  0.71951238     0.67100
H1006       H  0.65190654  0.83002900  0.69227995     0.16000
H1007       H  0.65384989  0.92239044  0.80863581     0.15700
N1008       N  0.53752584  0.91721681  0.77732721     0.74800
O1009       O  0.80031565  0.81358729  0.74169923    -0.38700
O1010       O  0.77452487  0.83637334  0.68222360    -0.38600
O1011       O  0.03142776  0.92356152  0.81461945    -0.39300
O1012       O  0.50724251  0.94090674  0.75228768    -0.39400
C1013       C  0.88989570  0.86730409  0.79155236    -0.11700
C1014       C  0.84340182  0.89339245  0.77063917     0.05400
C1015       C  0.86157715  0.90586520  0.73166551    -0.06900
C1016       C  0.91870883  0.88976845  0.71496142    -0.07700
C1017       C  0.96192335  0.85946690  0.73372576    -0.02200
C1018       C  0.94502188  0.84888653  0.77392261     0.04600
N1019       N  0.98427154  0.82259545  0.80011771     0.67100
H1020       H  0.88512126  0.86047707  0.82297213     0.16000
H1021       H  0.92992638  0.90488818  0.68715794     0.15700
N1022       N  0.82373161  0.93462741  0.70692616     0.74800
O1023       O  0.02686544  0.83972885  0.82222678    -0.38700
O1024       O  0.95825261  0.78975167  0.81346861    -0.38600
O1025       O  0.85236615  0.96677190  0.69446758    -0.39300
O1026       O  0.78126549  0.91947794  0.68363727    -0.39400
C1027       C  0.66300425  0.61852491  0.79360187    -0.11700
C1028       C  0.72481932  0.61949766  0.77494353     0.05400
C1029       C  0.71924225  0.63606408  0.73481479    -0.06900
C1030       C  0.65890786  0.65040549  0.71759175    -0.07700
C1031       C  0.59776049  0.64320371  0.73439786    -0.02200
C1032       C  0.60157070  0.62896988  0.77494370     0.04600
N1033       N  0.54538692  0.62667930  0.79955977     0.67100
H1034       H  0.65908755  0.60842632  0.82323508     0.16000
H1035       H  0.65972355  0.66369823  0.68782287     0.15700
N1036       N  0.77119385  0.63548493  0.70773483     0.74800
O1037       O  0.52910394  0.59116254  0.81274469    -0.38700
O1038       O  0.02383615  0.65453801  0.81653443    -0.38600
O1039       O  0.77395065  0.60463846  0.68471316    -0.39300
O1040       O  0.78985160  0.67068082  0.69496699    -0.39400
C1041       C  0.95503681  0.60078840  0.73530815    -0.11700
C1042       C  0.96690723  0.64375327  0.73026059     0.05400
C1043       C  0.91668548  0.67158376  0.74483292    -0.06900
C1044       C  0.86526175  0.65553627  0.76765121    -0.07700
C1045       C  0.85351217  0.61233496  0.77271496    -0.02200
C1046       C  0.89835055  0.58519845  0.75283799     0.04600
N1047       N  0.88125729  0.54430664  0.74056518     0.67100
H1048       H  0.98869423  0.57831063  0.72261660     0.16000
H1049       H  0.82977560  0.67757316  0.77924531     0.15700
N1050       N  0.91175009  0.71560404  0.73525779     0.74800
O1051       O  0.91969693  0.51405734  0.75002215    -0.38700
O1052       O  0.84842354  0.54234378  0.70825687    -0.38600
O1053       O  0.90125630  0.72742282  0.69955155    -0.39300
O1054       O  0.89774885  0.74086492  0.76242557    -0.39400
C1055       C  0.73610925  0.52987749  0.77897303    -0.11700
C1056       C  0.78704104  0.54936104  0.79962641     0.05400
C1057       C  0.83461037  0.52133811  0.81873713    -0.06900
C1058       C  0.82944910  0.97743620  0.81447704    -0.07700
C1059       C  0.77802689  0.95749231  0.79298247    -0.02200
C1060       C  0.73074643  0.98602886  0.77475409     0.04600
N1061       N  0.68824370  0.97612786  0.74225642     0.67100
H1062       H  0.70002619  0.54818472  0.76188328     0.16000
H1063       H  0.86835788  0.95792580  0.82799306     0.15700
N1064       N  0.88954341  0.53681452  0.84146387     0.74800
O1065       O  0.62785200  0.98118361  0.74822876    -0.38700
O1066       O  0.70813758  0.98690804  0.70835494    -0.38600
O1067       O  0.94652036  0.52414463  0.83336686    -0.39300
O1068       O  0.88049960  0.55134630  0.87570487    -0.39400
C1069       C  0.56222037  0.91063835  0.61184807    -0.11700
C1070       C  0.00576081  0.90189963  0.58768893     0.05400
C1071       C  0.95957461  0.87291379  0.60154685    -0.06900
C1072       C  0.96971899  0.85297754  0.63966969    -0.07700
C1073       C  0.02216547  0.86440109  0.66665010    -0.02200
C1074       C  0.56413895  0.89766137  0.65145985     0.04600
N1075       N  0.59736298  0.92578320  0.67648364     0.67100
H1076       H  0.59646425  0.93471705  0.60329267     0.16000
H1077       H  0.93426292  0.83029147  0.64942437     0.15700
N1078       N  0.90382452  0.86245916  0.57713722     0.74800
O1079       O  0.65825502  0.92735379  0.67222785    -0.38700
O1080       O  0.56671975  0.95916144  0.68452281    -0.38600
O1081       O  0.91106422  0.83877270  0.54770067    -0.39300
O1082       O  0.84678966  0.87146573  0.58833699    -0.39400
C1083       C  0.57983638  0.59911342  0.65890043    -0.11700
C1084       C  0.53230924  0.63122907  0.66677603     0.05400
C1085       C  0.97681945  0.63334424  0.63761511    -0.06900
C1086       C  0.97442221  0.60729547  0.60373599    -0.07700
C1087       C  0.52579959  0.57898004  0.59590266    -0.02200
C1088       C  0.57882189  0.57526223  0.62373247     0.04600
N1089       N  0.63155531  0.54617987  0.61763435     0.67100
H1090       H  0.61781393  0.59004571  0.68046449     0.16000
H1091       H  0.93232421  0.61006870  0.58325840     0.15700
N1092       N  0.92021002  0.65917739  0.64279914     0.74800
O1093       O  0.68529485  0.55918499  0.60478787    -0.38700
O1094       O  0.62681136  0.50837288  0.62870605    -0.38600
O1095       O  0.92041247  0.69629281  0.62927115    -0.39300
O1096       O  0.86604341  0.64077695  0.64266371    -0.39400
C1097       C  0.52995566  0.88706406  0.34319494    -0.11700
C1098       C  0.47190216  0.86507502  0.33329756     0.05400
C1099       C  0.92311283  0.86129659  0.36439696    -0.06900
C1100       C  0.92783249  0.88706022  0.39842050    -0.07700
C1101       C  0.48579027  0.91373789  0.40474022    -0.02200
C1102       C  0.53692911  0.91132834  0.37734513     0.04600
N1103       N  0.59614755  0.93442090  0.38261004     0.67100
H1104       H  0.57227292  0.88565032  0.32473609     0.16000
H1105       H  0.88924541  0.88614313  0.41998090     0.15700
N1106       N  0.87019632  0.83233334  0.36191219     0.74800
O1107       O  0.64059317  0.92047383  0.40654607    -0.38700
O1108       O  0.61029869  0.96191510  0.35685442    -0.38600
O1109       O  0.88208756  0.79424810  0.37058519    -0.39300
O1110       O  0.81183706  0.84590325  0.36380294    -0.39400
C1111       C  0.94145231  0.61247441  0.40284232    -0.11700
C1112       C  0.99889726  0.58897217  0.41191232     0.05400
C1113       C  0.55438886  0.59503948  0.38676905    -0.06900
C1114       C  0.54591367  0.61843695  0.35104373    -0.07700
C1115       C  0.98292313  0.63568813  0.33776737    -0.02200
C1116       C  0.93466378  0.63776887  0.36789948     0.04600
N1117       N  0.87895451  0.66555455  0.36451506     0.67100
H1118       H  0.90146356  0.61174906  0.42345033     0.16000
H1119       H  0.58893612  0.62168181  0.33334566     0.15700
N1120       N  0.61757616  0.57665959  0.39615519     0.74800
O1121       O  0.82259138  0.65123087  0.37052029    -0.38700
O1122       O  0.88798060  0.70418787  0.36959455    -0.38600
O1123       O  0.64073245  0.54892003  0.37382170    -0.39300
O1124       O  0.65502249  0.59395319  0.42141035    -0.39400
C1125       C  0.51594719  0.72612557  0.31508684    -0.11700
C1126       C  0.96445476  0.70257069  0.29594634     0.05400
C1127       C  0.90712072  0.72742345  0.28453884    -0.06900
C1128       C  0.90675242  0.77138936  0.28676672    -0.07700
C1129       C  0.46266789  0.79504901  0.29798104    -0.02200
C1130       C  0.51513062  0.77076393  0.31667841     0.04600
N1131       N  0.56778426  0.79035486  0.33811767     0.67100
H1132       H  0.55799763  0.70928830  0.32831107     0.16000
H1133       H  0.86065187  0.78711022  0.27924462     0.15700
N1134       N  0.84611894  0.71032031  0.27162855     0.74800
O1135       O  0.05860665  0.79984303  0.37385238    -0.38700
O1136       O  0.62578723  0.78516870  0.32670045    -0.38600
O1137       O  0.80760097  0.69695760  0.29753020    -0.39300
O1138       O  0.32196980  0.72301181  0.23931443    -0.39400
C1139       C  0.59094242  0.91600526  0.23787009    -0.11700
C1140       C  0.64195961  0.88804590  0.22703592     0.05400
C1141       C  0.63173702  0.84479697  0.23645135    -0.06900
C1142       C  0.57176788  0.83102795  0.25188166    -0.07700
C1143       C  0.52126682  0.85897715  0.26335101    -0.02200
C1144       C  0.53102002  0.90213421  0.25341963     0.04600
N1145       N  0.48057014  0.93291194  0.25941144     0.67100
H1146       H  0.59606830  0.94939580  0.23444276     0.16000
H1147       H  0.56645391  0.79759903  0.25499027     0.15700
N1148       N  0.68199284  0.81378592  0.23068012     0.74800
O1149       O  0.48311320  0.95555382  0.28994830    -0.38700
O1150       O  0.44339585  0.94399141  0.23020636    -0.38600
O1151       O  0.71991454  0.80345754  0.25978077    -0.39300
O1152       O  0.67835754  0.79011027  0.20090096    -0.39400
C1153       C  0.81481406  0.85727937  0.21068031    -0.11700
C1154       C  0.76811557  0.88446102  0.22794702     0.05400
C1155       C  0.78489427  0.89671110  0.26769306    -0.06900
C1156       C  0.84762760  0.88699121  0.28548891    -0.07700
C1157       C  0.89483811  0.86015378  0.26792024    -0.02200
C1158       C  0.87722769  0.84736258  0.22838901     0.04600
N1159       N  0.92369422  0.82734660  0.20345319     0.67100
H1160       H  0.80423936  0.84263566  0.18254366     0.16000
H1161       H  0.85839976  0.90184242  0.31343755     0.15700
N1162       N  0.73937498  0.92030135  0.29050085     0.74800
O1163       O  0.93644368  0.78870446  0.20788686    -0.38700
O1164       O  0.93517361  0.84467597  0.17034276    -0.38600
O1165       O  0.69534547  0.90091806  0.30857374    -0.39300
O1166       O  0.75434745  0.95655347  0.30186001    -0.39400
C1167       C  0.61148162  0.58263069  0.24443121    -0.11700
C1168       C  0.65833125  0.61103944  0.22971971     0.05400
C1169       C  0.64292046  0.65444944  0.23712657    -0.06900
C1170       C  0.58214942  0.66673687  0.25388382    -0.07700
C1171       C  0.53563152  0.63816595  0.26827352    -0.02200
C1172       C  0.55125472  0.59488320  0.26137323     0.04600
N1173       N  0.50594392  0.56193477  0.26935507     0.67100
H1174       H  0.62108604  0.54933604  0.24428264     0.16000
H1175       H  0.57237221  0.69995766  0.25536524     0.15700
N1176       N  0.68916956  0.68731629  0.23118774     0.74800
O1177       O  0.49742948  0.53412860  0.24340907    -0.38700
O1178       O  0.98752317  0.55385728  0.30441726    -0.38600
O1179       O  0.71545042  0.69281806  0.19798606    -0.39300
O1180       O  0.69211269  0.71644341  0.25623766    -0.39400
C1181       C  0.86119947  0.61013292  0.28920521    -0.11700
C1182       C  0.91013644  0.63370050  0.27003068     0.05400
C1183       C  0.89705375  0.64271532  0.22874608    -0.06900
C1184       C  0.83580267  0.63355398  0.21038038    -0.07700
C1185       C  0.78589308  0.61089725  0.22962046    -0.02200
C1186       C  0.79931256  0.60137415  0.27083890     0.04600
N1187       N  0.75044040  0.58310898  0.29520155     0.67100
H1188       H  0.86905239  0.59830256  0.31916359     0.16000
H1189       H  0.82856587  0.64611955  0.18067764     0.15700
N1190       N  0.94465369  0.66275411  0.20464810     0.74800
O1191       O  0.71164032  0.60726245  0.31289134    -0.38700
O1192       O  0.75844484  0.54598237  0.30827712    -0.38600
O1193       O  0.48044632  0.64137554  0.18370695    -0.39300
O1194       O  0.93832899  0.70136731  0.19630779    -0.39400
C1195       C  0.76669650  0.97333288  0.21281625    -0.11700
C1196       C  0.70942501  0.95298711  0.19932698     0.05400
C1197       C  0.66210316  0.98051322  0.17961139    -0.06900
C1198       C  0.67041498  0.52541449  0.18235092    -0.07700
C1199       C  0.72327847  0.54476441  0.20303185    -0.02200
C1200       C  0.77485558  0.51637357  0.21658042     0.04600
N1201       N  0.83870129  0.52938122  0.22962564     0.67100
H1202       H  0.81083542  0.95551385  0.22021190     0.16000
H1203       H  0.63280950  0.54520300  0.16780872     0.15700
N1204       N  0.60915520  0.96492534  0.15556241     0.74800
O1205       O  0.86046681  0.51680472  0.26348912    -0.38700
O1206       O  0.87971187  0.53856509  0.20362322    -0.38600
O1207       O  0.55115791  0.97595828  0.16332020    -0.39300
O1208       O  0.62093575  0.95337491  0.12059293    -0.39400
C1209       C  0.66345587  0.63608442  0.14623655    -0.11700
C1210       C  0.71797414  0.61162444  0.16111827     0.05400
C1211       C  0.76848735  0.60493520  0.13277601    -0.06900
C1212       C  0.77410531  0.63261624  0.09986032    -0.07700
C1213       C  0.72610816  0.66320961  0.09059095    -0.02200
C1214       C  0.66779897  0.66246624  0.11232800     0.04600
N1215       N  0.61414810  0.69048596  0.10228598     0.67100
H1216       H  0.61819590  0.63760549  0.16213440     0.16000
H1217       H  0.81610334  0.62969604  0.08091343     0.15700
N1218       N  0.81650258  0.57188889  0.13718855     0.74800
O1219       O  0.56645077  0.67784604  0.08110030    -0.38700
O1220       O  0.60995811  0.72547722  0.11923189    -0.38600
O1221       O  0.79879759  0.53480696  0.13057670    -0.39300
O1222       O  0.87631239  0.58058330  0.13346056    -0.39400
C1223       C  0.66259698  0.83872693  0.10617210    -0.11700
C1224       C  0.72151849  0.84158188  0.08636355     0.05400
C1225       C  0.76753713  0.87110601  0.09993778    -0.06900
C1226       C  0.75587940  0.89410749  0.13474319    -0.07700
C1227       C  0.70178503  0.88569952  0.15929907    -0.02200
C1228       C  0.65107263  0.86047687  0.14142704     0.04600
N1229       N  0.58659851  0.85650790  0.15675397     0.67100
H1230       H  0.62486520  0.81820805  0.09462814     0.16000
H1231       H  0.79345751  0.91537656  0.14506138     0.15700
N1232       N  0.82705535  0.87750858  0.07933401     0.74800
O1233       O  0.54834481  0.88799045  0.15585251    -0.38700
O1234       O  0.56218945  0.82041416  0.15946144    -0.38600
O1235       O  0.83158937  0.90861459  0.05583679    -0.39300
O1236       O  0.87786170  0.85622122  0.08926567    -0.39400
C1237       C  0.74220536  0.63405472  0.90449546    -0.11700
C1238       C  0.78865708  0.66426993  0.91331794     0.05400
C1239       C  0.84486698  0.66591674  0.88983661    -0.06900
C1240       C  0.84796684  0.64222877  0.85481974    -0.07700
C1241       C  0.79572973  0.61621390  0.84167368    -0.02200
C1242       C  0.74845113  0.60766293  0.87170025     0.04600
N1243       N  0.71368188  0.56904306  0.87362002     0.67100
H1244       H  0.70286435  0.62888731  0.92502384     0.16000
H1245       H  0.89293238  0.64419901  0.83884504     0.15700
N1246       N  0.89895971  0.69186439  0.90061173     0.74800
O1247       O  0.74690551  0.53671553  0.88292008    -0.38700
O1248       O  0.65368096  0.56952342  0.88219694    -0.38600
O1249       O  0.94426774  0.67720506  0.92352887    -0.39300
O1250       O  0.90765836  0.72577061  0.88165561    -0.39400
C1251       C  0.77400292  0.87627064  0.90658220    -0.11700
C1252       C  0.77071215  0.83270945  0.90443274     0.05400
C1253       C  0.76465917  0.81437356  0.86673125    -0.06900
C1254       C  0.76620397  0.83973054  0.83240325    -0.07700
C1255       C  0.77186864  0.88409693  0.83294227    -0.02200
C1256       C  0.77132592  0.90213128  0.87187143     0.04600
N1257       N  0.76022080  0.94564581  0.87804342     0.67100
H1258       H  0.77383493  0.89056993  0.93573658     0.16000
H1259       H  0.76164951  0.82396104  0.80460367     0.15700
N1260       N  0.75585893  0.77001833  0.86238633     0.74800
O1261       O  0.70489301  0.96146085  0.86796759    -0.38700
O1262       O  0.79574518  0.96390120  0.90371694    -0.38600
O1263       O  0.70707887  0.75268794  0.87761900    -0.39300
O1264       O  0.78731688  0.75050889  0.83636820    -0.39400
loop_ 
_geom_bond_atom_site_label_1 
_geom_bond_atom_site_label_2 
_geom_bond_distance 
_geom_bond_site_symmetry_2 
_ccdc_geom_bond_type 
O1           Cu9   2.029       .  S
O1           C11   1.283       .  A
O2           Cu9   2.028   1_554  S
O2           C12   1.283       .  A
O3           Cu9   1.998       .  S
O3           C13   1.274       .  A
O4           Cu9   2.003   1_554  S
O4           C14   1.274       .  A
O5          Cu10   2.051       .  S
O5           C14   1.285       .  A
O6          Cu10   2.033   1_556  S
O6           C13   1.281       .  A
O7          Cu10   2.016       .  S
O7           C12   1.276       .  A
O8          Cu10   2.006   1_556  S
O8           C11   1.275       .  A
Cu9         Cu10   2.369   1_556  S
C11         C290   1.489       .  S
C12         C276   1.492       .  S
C13         C304   1.475       .  S
C14         C265   1.494       .  S
C15         C220   1.618       .  S
C15         C237   1.598       .  S
C15         C251   1.600       .  S
C15         C262   1.597       .  S
C16         C192   1.587       .  S
C16         C206   1.612       .  S
C16         C248   1.606       .  S
C16         C279   1.586       .  S
C17         C167   1.595       .  S
C17         C178   1.603       .  S
C17         C234   1.594       .  S
C17         C855   1.611       .  S
C18         C150   1.586       .  S
C18         C181   1.595       .  S
C18         C195   1.597   1_655  S
C18         C841   1.610       .  S
O19         Cu27   2.011   1_545  S
O19         C661   1.277   1_455  A
O20        Cu343   1.999       .  S
O20         C662   1.281       .  A
O21        Cu343   2.001       .  S
O21         C663   1.276   1_455  A
O22         Cu27   2.039   1_545  S
O22         C664   1.279       .  A
O23         Cu28   2.068   1_545  S
O23          C32   1.287       .  A
O24        Cu344   2.048       .  S
O24          C31   1.282       .  A
O25        Cu344   2.046       .  S
O25          C30   1.279       .  A
O26         Cu28   2.039   1_545  S
O26          C29   1.282       .  A
Cu27        O336   1.997       .  S
Cu27        O337   2.001       .  S
Cu27       Cu660   2.359   1_455  S
Cu28        O340   2.048       .  S
Cu28        O341   2.043       .  S
Cu28       Cu659   2.361       .  S
C29         O651   1.278       .  A
C29         C164   1.500       .  S
C30         O652   1.281       .  A
C30         C122   1.496       .  S
C31         O653   1.277       .  A
C31         C785   1.499       .  S
C32         O654   1.280       .  A
C32         C771   1.517       .  S
C33          C80   1.638       .  S
C33          C97   1.602       .  S
C33         C108   1.588       .  S
C33         C293   1.598       .  S
C34          C55   1.577       .  S
C34          C66   1.579       .  S
C34         C111   1.610       .  S
C34         C307   1.596       .  S
C35          C38   1.575       .  S
C35          C83   1.599       .  S
C35         C136   1.617       .  S
C35         C726   1.586   1_455  S
C36          C41   1.609       .  S
C36          C69   1.602       .  S
C36         C125   1.614       .  S
C36         C684   1.566       .  S
C37          C38   1.410       .  A
C37          C42   1.396       .  A
C37          H44   1.074       .  S
C38         C671   1.424       .  A
C39          C40   1.417       .  A
C39         C670   1.422       .  A
C39          N46   1.433       .  S
C40          C41   1.428       .  A
C40          H45   1.074       .  S
C41         C674   1.439       .  A
C42         C673   1.438       .  A
C42          N43   1.443       .  S
N43          O47   1.263       .  A
N43          O48   1.260       .  A
N46          O50   1.262       .  A
N46          O49   1.263       .  A
C51          C52   1.411       .  A
C51          C56   1.405       .  A
C51          H58   1.084       .  S
C52         C668   1.566       .  S
C52          C53   1.430       .  A
C53          C54   1.403       .  A
C53          N60   1.440       .  S
C54          C55   1.411       .  A
C54          H59   1.082       .  S
C55          C56   1.442       .  A
C56          N57   1.442       .  S
N57          O61   1.260       .  A
N57          O62   1.263       .  A
N60          O64   1.260       .  A
N60         O695   1.263       .  A
O63         N692   1.263       .  A
C65          C66   1.411       .  A
C65          C70   1.408       .  A
C65          H72   1.079       .  S
C66          C67   1.415       .  A
C67          C68   1.399       .  A
C67          N74   1.422       .  S
C68          C69   1.422       .  A
C68          H73   1.074       .  S
C69          C70   1.437       .  A
C70          N71   1.422       .  S
N71          O75   1.261       .  A
N71          O76   1.262       .  A
N74          O78   1.261       .  A
N74          O77   1.250       .  A
C79          C80   1.422       .  A
C79          C84   1.417       .  A
C79          H86   1.047       .  S
C80          C81   1.437       .  A
C81          C82   1.409       .  A
C81          N88   1.412       .  S
C82          C83   1.401       .  A
C82          H87   1.080       .  S
C83          C84   1.425       .  A
C84          N85   1.431       .  S
N85          O89   1.260       .  A
N85         O722   1.262       .  A
N88          O92   1.263       .  A
N88          O91   1.261       .  A
O90         N717   1.262       .  A
C93          C94   1.402       .  A
C93          C98   1.407       .  A
C93         H100   1.084       .  S
C94         C667   1.587       .  S
C94          C95   1.445       .  A
C95          C96   1.415       .  A
C95         N102   1.434       .  S
C96          C97   1.410       .  A
C96         H101   1.084       .  S
C97          C98   1.433       .  A
C98          N99   1.419       .  S
N99         O103   1.263       .  A
N99         O104   1.259       .  A
N102        O106   1.261       .  A
N102        O105   1.260       .  A
C107        C108   1.392       .  A
C107        C428   1.394   1_545  A
C107        H114   1.075       .  S
C108        C109   1.441       .  A
C109        C426   1.433   1_545  A
C109        N116   1.434       .  S
C110        C111   1.423       .  A
C110        C425   1.434       .  A
C110        H115   1.083       .  S
C111        C112   1.437       .  A
C112        C423   1.394       .  A
C112        N113   1.417       .  S
N113        O117   1.262       .  A
N113        O118   1.260       .  A
N116        O120   1.261       .  A
N116        O119   1.262       .  A
C121        C126   1.386       .  A
C121        C754   1.382       .  A
C121        H128   1.085       .  S
C122        C123   1.411       .  A
C122        C753   1.382       .  A
C123        C124   1.423       .  A
C123        N130   1.427       .  S
C124        C125   1.434       .  A
C124        H129   1.084       .  S
C125        C758   1.429       .  A
C126        C757   1.428       .  A
C126        N127   1.409       .  S
N127        O131   1.260       .  A
N127        O132   1.260       .  A
N130        O134   1.262       .  A
N130        O133   1.262       .  A
C135        C136   1.431       .  A
C135        C140   1.416       .  A
C135        H142   1.075       .  S
C136        C769   1.433   1_455  A
C137        C138   1.416       .  A
C137        C768   1.432       .  A
C137        N144   1.413       .  S
C138        C771   1.395       .  A
C138        H143   1.084       .  S
C139        C664   1.518       .  S
C139        C140   1.411       .  A
C139        C770   1.397   1_455  A
C140        N141   1.429       .  S
N141        O145   1.262       .  A
N141        O146   1.260       .  A
N144        O148   1.255       .  A
N144        O147   1.261       .  A
C149        C150   1.418   1_455  A
C149        C154   1.394       .  A
C149        H156   1.076       .  S
C150        C783   1.431       .  A
C151        C152   1.417       .  A
C151        C782   1.431       .  A
C151        N158   1.431       .  S
C152        C785   1.406       .  A
C152        H157   1.083       .  S
C153        C663   1.497       .  S
C153        C154   1.409   1_655  A
C153        C784   1.406       .  A
C154        N155   1.431       .  S
N155        O159   1.262       .  A
N155        O160   1.262       .  A
N158        O162   1.262       .  A
N158        O161   1.261       .  A
C163        C164   1.402       .  A
C163        C168   1.412       .  A
C163        H170   1.084       .  S
C164        C797   1.410       .  A
C165        C166   1.403       .  A
C165        C796   1.412   1_455  A
C165        N172   1.431       .  S
C166        C799   1.422   1_455  A
C166        H171   1.078       .  S
C167        C168   1.431       .  A
C167        C798   1.423       .  A
C168        N169   1.428       .  S
N169        O173   1.263       .  A
N169        O174   1.261       .  A
N172        O176   1.262       .  A
N172        O175   1.262       .  A
C177        C182   1.423       .  A
C177        C810   1.421   1_455  A
C177        H184   1.083       .  S
C178        C179   1.439       .  A
C178        C809   1.421       .  A
C179        C180   1.403       .  A
C179        N186   1.425       .  S
C180        C813   1.404       .  A
C180        H185   1.079       .  S
C181        C182   1.431   1_655  A
C181        C812   1.403       .  A
C182        N183   1.431       .  S
N183        O819   1.262       .  A
N183        O188   1.262       .  A
N186        O822   1.262       .  A
N186        O189   1.260       .  A
O187        N815   1.262       .  A
O190        N818   1.262       .  A
C191        C192   1.416       .  A
C191        C196   1.416       .  A
C191        H198   1.075       .  S
C192        C193   1.429       .  A
C193        C194   1.414       .  A
C193        N200   1.431       .  S
C194        C195   1.415       .  A
C194        H199   1.076       .  S
C195        C196   1.429       .  A
C196        N197   1.429   1_455  S
N197        O201   1.261       .  A
N197        O202   1.262       .  A
N200        O204   1.262       .  A
N200        O203   1.262       .  A
C205        C206   1.416       .  A
C205        C210   1.416       .  A
C205        H212   1.076       .  S
C206        C207   1.427       .  A
C207        C208   1.422       .  A
C207        N214   1.431       .  S
C208        C209   1.423       .  A
C208        H213   1.074       .  S
C209        C650   1.611       .  S
C209        C210   1.432       .  A
C210        N211   1.433       .  S
N211        O215   1.260       .  A
N211        O216   1.261       .  A
N214        O218   1.261       .  A
N214        O217   1.261       .  A
C219        C220   1.418       .  A
C219        C224   1.421       .  A
C219        H226   1.075       .  S
C220        C221   1.440       .  A
C221        C222   1.425       .  A
C221        N228   1.435       .  S
C222        C223   1.414       .  A
C222        H227   1.076       .  S
C223        C649   1.612   1_455  S
C223        C224   1.436       .  A
C224        N225   1.436   1_455  S
N225        O229   1.262       .  A
N225        O862   1.260       .  A
N228        O232   1.262       .  A
N228        O231   1.259       .  A
O230        N857   1.260       .  A
C233        C234   1.420       .  A
C233        C238   1.421       .  A
C233        H240   1.073       .  S
C234        C235   1.425       .  A
C235        C236   1.412       .  A
C235        N242   1.432       .  S
C236        C237   1.420       .  A
C236        H241   1.072       .  S
C237        C238   1.427       .  A
C238        N239   1.431       .  S
N239        O243   1.261       .  A
N239        O244   1.261       .  A
N242        O246   1.261       .  A
N242        O877   1.262       .  A
O245        N874   1.262       .  A
C247        C248   1.414       .  A
C247        C568   1.405       .  A
C247        H254   1.076       .  S
C248        C249   1.431       .  A
C249        C566   1.419       .  A
C249        N256   1.428       .  S
C250        C251   1.418       .  A
C250        C565   1.420   1_545  A
C250        H255   1.084       .  S
C251        C252   1.436       .  A
C252        C563   1.406   1_545  A
C252        N253   1.429       .  S
N253        O257   1.262       .  A
N253        O258   1.259       .  A
N256        O260   1.262       .  A
N256        O259   1.263       .  A
C261        C262   1.422       .  A
C261        C266   1.408       .  A
C261        H268   1.079       .  S
C262        C263   1.435       .  A
C263        C264   1.408       .  A
C263        N270   1.428       .  S
C264        C265   1.395       .  A
C264        H269   1.084       .  S
C265        C266   1.412       .  A
C266        N267   1.430       .  S
N267        O271   1.262       .  A
N267        O272   1.262       .  A
N270        O274   1.263       .  A
N270        O273   1.262       .  A
C275        C276   1.391       .  A
C275        C280   1.402       .  A
C275        H282   1.084       .  S
C276        C277   1.410       .  A
C277        C278   1.410       .  A
C277        N284   1.429       .  S
C278        C279   1.420       .  A
C278        H283   1.083       .  S
C279        C280   1.443       .  A
C280        N281   1.431       .  S
N281        O285   1.260       .  A
N281        O286   1.263       .  A
N284        O288   1.262       .  A
N284        O287   1.262       .  A
C289        C290   1.391       .  A
C289        C294   1.402       .  A
C289        H296   1.084       .  S
C290        C291   1.411       .  A
C291        C292   1.408       .  A
C291        N298   1.431       .  S
C292        C293   1.423       .  A
C292        H297   1.077       .  S
C293        C294   1.439       .  A
C294        N295   1.432       .  S
N295        O299   1.255       .  A
N295        O300   1.264       .  A
N298        O302   1.262       .  A
N298        O301   1.262       .  A
C303        C304   1.393       .  A
C303        C308   1.413       .  A
C303        H310   1.084       .  S
C304        C305   1.401       .  A
C305        C306   1.395       .  A
C305        N312   1.435       .  S
C306        C307   1.420       .  A
C306        H311   1.068       .  S
C307        C308   1.432       .  A
C308        N309   1.418       .  S
N309        O313   1.262       .  A
N309        O314   1.263       .  A
N312        O316   1.262       .  A
N312        O315   1.261       .  A
O317       Cu325   2.029       .  S
O317        C327   1.283       .  A
O318       Cu325   2.029   1_554  S
O318        C328   1.283       .  A
O319       Cu325   1.993       .  S
O319        C329   1.274       .  A
O320       Cu325   1.998   1_554  S
O320        C330   1.274       .  A
O321       Cu326   2.056       .  S
O321        C330   1.286       .  A
O322       Cu326   2.038   1_556  S
O322        C329   1.281       .  A
O323       Cu326   2.024       .  S
O323        C328   1.277       .  A
O324       Cu326   2.013   1_556  S
O324        C327   1.276       .  A
Cu325      Cu326   2.368   1_556  S
C327        C606   1.491       .  S
C328        C592   1.495       .  S
C329        C620   1.476       .  S
C330        C581   1.494       .  S
C331        C536   1.620       .  S
C331        C553   1.599       .  S
C331        C567   1.596       .  S
C331        C578   1.597       .  S
C332        C508   1.590       .  S
C332        C522   1.615       .  S
C332        C564   1.607       .  S
C332        C595   1.588       .  S
C333        C483   1.595       .  S
C333        C494   1.604       .  S
C333       C1171   1.610       .  S
C333        C550   1.595       .  S
C334        C466   1.587       .  S
C334        C497   1.596       .  S
C334        C511   1.598   1_655  S
C334       C1157   1.613       .  S
O335       Cu343   2.015       .  S
O335        C977   1.278       .  A
O336        C978   1.280   1_455  A
O337        C979   1.276   1_455  A
O338       Cu343   2.035       .  S
O338        C980   1.279       .  A
O339       Cu344   2.061       .  S
O339        C348   1.285       .  A
O340        C347   1.282       .  A
O341        C346   1.278       .  A
O342       Cu344   2.041       .  S
O342        C345   1.282       .  A
Cu343      Cu976   2.361   1_455  S
Cu344      Cu975   2.361       .  S
C345        O967   1.278       .  A
C345        C480   1.502       .  S
C346        O968   1.281       .  A
C346        C438   1.491       .  S
C347        O969   1.276       .  A
C347       C1101   1.499       .  S
C348        O970   1.279       .  A
C348       C1087   1.510       .  S
C349        C396   1.637       .  S
C349        C413   1.599       .  S
C349        C424   1.588       .  S
C349        C609   1.602       .  S
C350        C371   1.577       .  S
C350        C382   1.579       .  S
C350        C427   1.604       .  S
C350        C623   1.599       .  S
C351        C354   1.570       .  S
C351        C399   1.602       .  S
C351       C1042   1.585   1_455  S
C351        C452   1.613       .  S
C352        C357   1.607       .  S
C352       C1000   1.567       .  S
C352        C385   1.602       .  S
C352        C441   1.609       .  S
C353        C354   1.408       .  A
C353        C358   1.394       .  A
C353        H360   1.074       .  S
C354        C987   1.423       .  A
C355        C986   1.424       .  A
C355        C356   1.418       .  A
C355        N362   1.439       .  S
C356        C357   1.429       .  A
C356        H361   1.074       .  S
C357        C990   1.437       .  A
C358        C989   1.439       .  A
C358        N359   1.443       .  S
N359        O363   1.264       .  A
N359        O364   1.259       .  A
N362        O366   1.261       .  A
N362        O365   1.263       .  A
C367        C368   1.413       .  A
C367        C372   1.406       .  A
C367        H374   1.083       .  S
C368        C984   1.566       .  S
C368        C369   1.431       .  A
C369        C370   1.403       .  A
C369        N376   1.442       .  S
C370        C371   1.411       .  A
C370        H375   1.081       .  S
C371        C372   1.441       .  A
C372        N373   1.445       .  S
N373        O377   1.260       .  A
N373        O378   1.263       .  A
N376        O380   1.260       .  A
N376       O1011   1.263       .  A
O379       N1008   1.263       .  A
C381        C382   1.412       .  A
C381        C386   1.409       .  A
C381        H388   1.079       .  S
C382        C383   1.419       .  A
C383        C384   1.400       .  A
C383        N390   1.425       .  S
C384        C385   1.422       .  A
C384        H389   1.074       .  S
C385        C386   1.436       .  A
C386        N387   1.423       .  S
N387        O391   1.261       .  A
N387        O392   1.262       .  A
N390        O394   1.257       .  A
N390        O393   1.256       .  A
C395        C396   1.422       .  A
C395        C400   1.417       .  A
C395        H402   1.046       .  S
C396        C397   1.436       .  A
C397        C398   1.409       .  A
C397        N404   1.413       .  S
C398        C399   1.403       .  A
C398        H403   1.078       .  S
C399        C400   1.425       .  A
C400        N401   1.431       .  S
N401        O405   1.261       .  A
N401       O1038   1.262       .  A
N404        O408   1.262       .  A
N404        O407   1.261       .  A
O406       N1033   1.262       .  A
C409        C410   1.402       .  A
C409        C414   1.405       .  A
C409        H416   1.084       .  S
C410        C983   1.585       .  S
C410        C411   1.444       .  A
C411        C412   1.414       .  A
C411        N418   1.435       .  S
C412        C413   1.410       .  A
C412        H417   1.084       .  S
C413        C414   1.431       .  A
C414        N415   1.417       .  S
N415        O419   1.263       .  A
N415        O420   1.258       .  A
N418        O422   1.261       .  A
N418        O421   1.260       .  A
C423        C424   1.392       .  A
C423        H430   1.076       .  S
C424        C425   1.437       .  A
C425        N432   1.434       .  S
C426        C427   1.419       .  A
C426        H431   1.083       .  S
C427        C428   1.431       .  A
C428        N429   1.413       .  S
N429        O433   1.261       .  A
N429        O434   1.260       .  A
N432        O436   1.261       .  A
N432        O435   1.262       .  A
C437       C1070   1.380       .  A
C437        C442   1.383       .  A
C437        H444   1.086       .  S
C438       C1069   1.378       .  A
C438        C439   1.412       .  A
C439        C440   1.425       .  A
C439        N446   1.427       .  S
C440        C441   1.434       .  A
C440        H445   1.083       .  S
C441       C1074   1.422       .  A
C442       C1073   1.422       .  A
C442        N443   1.405       .  S
N443        O447   1.256       .  A
N443        O448   1.261       .  A
N446        O450   1.262       .  A
N446        O449   1.262       .  A
C451        C452   1.431       .  A
C451        C456   1.413       .  A
C451        H458   1.075       .  S
C452       C1085   1.437   1_455  A
C453       C1084   1.433       .  A
C453        C454   1.416       .  A
C453        N460   1.419       .  S
C454       C1087   1.397       .  A
C454        H459   1.084       .  S
C455        C980   1.512       .  S
C455       C1086   1.395   1_455  A
C455        C456   1.408       .  A
C456        N457   1.429       .  S
N457        O461   1.262       .  A
N457        O462   1.261       .  A
N460        O464   1.256       .  A
N460        O463   1.260       .  A
C465        C466   1.417   1_455  A
C465        C470   1.397       .  A
C465        H472   1.077       .  S
C466       C1099   1.432       .  A
C467       C1098   1.431       .  A
C467        C468   1.416       .  A
C467        N474   1.432       .  S
C468       C1101   1.406       .  A
C468        H473   1.083       .  S
C469        C979   1.502       .  S
C469       C1100   1.406       .  A
C469        C470   1.412   1_655  A
C470        N471   1.432       .  S
N471        O475   1.262       .  A
N471        O476   1.262       .  A
N474        O478   1.262       .  A
N474        O477   1.261       .  A
C479        C480   1.402       .  A
C479        C484   1.412       .  A
C479        H486   1.083       .  S
C480       C1113   1.411       .  A
C481       C1112   1.412   1_455  A
C481        C482   1.404       .  A
C481        N488   1.431       .  S
C482       C1115   1.423   1_455  A
C482        H487   1.078       .  S
C483       C1114   1.423       .  A
C483        C484   1.431       .  A
C484        N485   1.429       .  S
N485        O489   1.263       .  A
N485        O490   1.261       .  A
N488        O492   1.262       .  A
N488        O491   1.262       .  A
C493       C1126   1.420   1_455  A
C493        C498   1.424       .  A
C493        H500   1.083       .  S
C494       C1125   1.420       .  A
C494        C495   1.439       .  A
C495        C496   1.403       .  A
C495        N502   1.424       .  S
C496       C1129   1.402       .  A
C496        H501   1.079       .  S
C497       C1128   1.402       .  A
C497        C498   1.432   1_655  A
C498        N499   1.431       .  S
N499       O1135   1.262       .  A
N499        O504   1.262       .  A
N502       O1138   1.262       .  A
N502        O505   1.260       .  A
O503       N1131   1.262       .  A
O506       N1134   1.262       .  A
C507        C508   1.417       .  A
C507        C512   1.417       .  A
C507        H514   1.075       .  S
C508        C509   1.429       .  A
C509        C510   1.415       .  A
C509        N516   1.431       .  S
C510        C511   1.416       .  A
C510        H515   1.076       .  S
C511        C512   1.428       .  A
C512        N513   1.430   1_455  S
N513        O517   1.261       .  A
N513        O518   1.262       .  A
N516        O520   1.261       .  A
N516        O519   1.262       .  A
C521        C522   1.418       .  A
C521        C526   1.416       .  A
C521        H528   1.076       .  S
C522        C523   1.427       .  A
C523        C524   1.423       .  A
C523        N530   1.431       .  S
C524        C525   1.423       .  A
C524        H529   1.074       .  S
C525        C966   1.613       .  S
C525        C526   1.429       .  A
C526        N527   1.430       .  S
N527        O531   1.259       .  A
N527        O532   1.261       .  A
N530        O534   1.261       .  A
N530        O533   1.261       .  A
C535        C536   1.420       .  A
C535        C540   1.420       .  A
C535        H542   1.076       .  S
C536        C537   1.440       .  A
C537        C538   1.425       .  A
C537        N544   1.434       .  S
C538        C539   1.414       .  A
C538        H543   1.076       .  S
C539        C965   1.610   1_455  S
C539        C540   1.435       .  A
C540        N541   1.436       .  S
N541        O545   1.262   1_455  A
N541       O1178   1.260   1_455  A
N544        O548   1.262       .  A
N544        O547   1.259       .  A
O546       N1173   1.260       .  A
C549        C550   1.421       .  A
C549        C554   1.422       .  A
C549        H556   1.073       .  S
C550        C551   1.424       .  A
C551        C552   1.412       .  A
C551        N558   1.432       .  S
C552        C553   1.420       .  A
C552        H557   1.072       .  S
C553        C554   1.427       .  A
C554        N555   1.431       .  S
N555        O559   1.261       .  A
N555        O560   1.261       .  A
N558        O562   1.261       .  A
N558       O1193   1.262       .  A
O561       N1190   1.262       .  A
C563        C564   1.411       .  A
C563        H570   1.076       .  S
C564        C565   1.432       .  A
C565        N572   1.428       .  S
C566        C567   1.419       .  A
C566        H571   1.084       .  S
C567        C568   1.434       .  A
C568        N569   1.430       .  S
N569        O573   1.262       .  A
N569        O574   1.259       .  A
N572        O576   1.262       .  A
N572        O575   1.263       .  A
C577        C578   1.420       .  A
C577        C582   1.408       .  A
C577        H584   1.079       .  S
C578        C579   1.436       .  A
C579        C580   1.409       .  A
C579        N586   1.428       .  S
C580        C581   1.394       .  A
C580        H585   1.084       .  S
C581        C582   1.411       .  A
C582        N583   1.429       .  S
N583        O587   1.262       .  A
N583        O588   1.262       .  A
N586        O590   1.264       .  A
N586        O589   1.262       .  A
C591        C592   1.392       .  A
C591        C596   1.404       .  A
C591        H598   1.084       .  S
C592        C593   1.410       .  A
C593        C594   1.412       .  A
C593        N600   1.429       .  S
C594        C595   1.421       .  A
C594        H599   1.083       .  S
C595        C596   1.442       .  A
C596        N597   1.431       .  S
N597        O601   1.260       .  A
N597        O602   1.263       .  A
N600        O604   1.262       .  A
N600        O603   1.262       .  A
C605        C606   1.391       .  A
C605        C610   1.402       .  A
C605        H612   1.084       .  S
C606        C607   1.411       .  A
C607        C608   1.409       .  A
C607        N614   1.431       .  S
C608        C609   1.424       .  A
C608        H613   1.077       .  S
C609        C610   1.438       .  A
C610        N611   1.430       .  S
N611        O615   1.254       .  A
N611        O616   1.264       .  A
N614        O618   1.262       .  A
N614        O617   1.262       .  A
C619        C620   1.393       .  A
C619        C624   1.413       .  A
C619        H626   1.084       .  S
C620        C621   1.402       .  A
C621        C622   1.395       .  A
C621        N628   1.435       .  S
C622        C623   1.420       .  A
C622        H627   1.066       .  S
C623        C624   1.434       .  A
C624        N625   1.420       .  S
N625        O629   1.262       .  A
N625        O630   1.263       .  A
N628        O632   1.262       .  A
N628        O631   1.261       .  A
O633       Cu641   2.024       .  S
O633        C643   1.282       .  A
O634       Cu641   2.023   1_554  S
O634        C644   1.282       .  A
O635       Cu641   1.992       .  S
O635        C645   1.274       .  A
O636       Cu641   1.999   1_554  S
O636        C646   1.274       .  A
O637       Cu642   2.048       .  S
O637        C646   1.285       .  A
O638       Cu642   2.029   1_556  S
O638        C645   1.280       .  A
O639       Cu642   2.016       .  S
O639        C644   1.276       .  A
O640       Cu642   2.006   1_556  S
O640        C643   1.275       .  A
Cu641      Cu642   2.370   1_556  S
C643        C922   1.487       .  S
C644        C908   1.490       .  S
C645        C936   1.471       .  S
C646        C897   1.490       .  S
C647        C852   1.618       .  S
C647        C869   1.596       .  S
C647        C883   1.598       .  S
C647        C894   1.596       .  S
C648        C824   1.587       .  S
C648        C838   1.611       .  S
C648        C880   1.605       .  S
C648        C911   1.584       .  S
C649        C799   1.596       .  S
C649        C810   1.603       .  S
C649        C866   1.593       .  S
C650        C782   1.588       .  S
C650        C813   1.595       .  S
C650        C827   1.597       .  S
O651       Cu659   2.016   1_545  S
O652       Cu975   2.004       .  S
O653       Cu975   2.004       .  S
O654       Cu659   2.043   1_545  S
O655       Cu660   2.074   1_545  S
O655        C664   1.287   1_655  A
O656       Cu976   2.048       .  S
O656        C663   1.282       .  A
O657       Cu976   2.048       .  S
O657        C662   1.279   1_655  A
O658       Cu660   2.045   1_545  S
O658        C661   1.283       .  A
Cu659       O968   2.001       .  S
Cu659       O969   2.004       .  S
Cu660       O972   2.056       .  S
Cu660       O973   2.050       .  S
C661        C796   1.502       .  S
C662        C754   1.494       .  S
C665        C712   1.637       .  S
C665        C729   1.602       .  S
C665        C740   1.587       .  S
C665        C925   1.597       .  S
C666        C687   1.578       .  S
C666        C698   1.581       .  S
C666        C743   1.609       .  S
C666        C939   1.593       .  S
C667        C670   1.574       .  S
C667        C715   1.597       .  S
C667        C768   1.618       .  S
C668        C673   1.610       .  S
C668        C701   1.603   1_455  S
C668        C757   1.612       .  S
C669        C670   1.410       .  A
C669        C674   1.395       .  A
C669        H676   1.075       .  S
C671        C672   1.418       .  A
C671        N678   1.436       .  S
C672        C673   1.429       .  A
C672        H677   1.074       .  S
C674        N675   1.443       .  S
N675        O679   1.264       .  A
N675        O680   1.260       .  A
N678        O682   1.261       .  A
N678        O681   1.263       .  A
C683        C684   1.412       .  A
C683        C688   1.405       .  A
C683        H690   1.084       .  S
C684        C685   1.432       .  A
C685        C686   1.403       .  A
C685        N692   1.441       .  S
C686        C687   1.410       .  A
C686        H691   1.081       .  S
C687        C688   1.441       .  A
C688        N689   1.441       .  S
N689        O693   1.260       .  A
N689        O694   1.263       .  A
N692        O696   1.260       .  A
C697        C698   1.412       .  A
C697        C702   1.409       .  A
C697        H704   1.079       .  S
C698        C699   1.416       .  A
C699        C700   1.400       .  A
C699        N706   1.424       .  S
C700        C701   1.422       .  A
C700        H705   1.074       .  S
C701        C702   1.436       .  A
C702        N703   1.423       .  S
N703        O707   1.261   1_655  A
N703        O708   1.262       .  A
N706        O710   1.262       .  A
N706        O709   1.250       .  A
C711        C712   1.423       .  A
C711        C716   1.417       .  A
C711        H718   1.038       .  S
C712        C713   1.437       .  A
C713        C714   1.409       .  A
C713        N720   1.412       .  S
C714        C715   1.402       .  A
C714        H719   1.081       .  S
C715        C716   1.424       .  A
C716        N717   1.431       .  S
N717        O721   1.260       .  A
N720        O724   1.263       .  A
N720        O723   1.261       .  A
C725        C726   1.403       .  A
C725        C730   1.407       .  A
C725        H732   1.083       .  S
C726        C727   1.443       .  A
C727        C728   1.415       .  A
C727        N734   1.434       .  S
C728        C729   1.411       .  A
C728        H733   1.084       .  S
C729        C730   1.434       .  A
C730        N731   1.420       .  S
N731        O735   1.263       .  A
N731        O736   1.259       .  A
N734        O738   1.261       .  A
N734        O737   1.260       .  A
C739        C740   1.392       .  A
C739       C1060   1.392   1_545  A
C739        H746   1.074       .  S
C740        C741   1.440       .  A
C741       C1058   1.433   1_545  A
C741        N748   1.434       .  S
C742       C1057   1.432       .  A
C742        C743   1.422       .  A
C742        H747   1.083       .  S
C743        C744   1.439       .  A
C744       C1055   1.395       .  A
C744        N745   1.417       .  S
N745        O749   1.262       .  A
N745        O750   1.260       .  A
N748        O752   1.261       .  A
N748        O751   1.262       .  A
C753        C758   1.387       .  A
C753        H760   1.085       .  S
C754        C755   1.411   1_455  A
C755        C756   1.423       .  A
C755        N762   1.427       .  S
C756        C757   1.434   1_655  A
C756        H761   1.084       .  S
C758        N759   1.409       .  S
N759        O763   1.261       .  A
N759        O764   1.260       .  A
N762        O766   1.262       .  A
N762        O765   1.262       .  A
C767        C768   1.432       .  A
C767        C772   1.417       .  A
C767        H774   1.075       .  S
C769        C770   1.418       .  A
C769        N776   1.417       .  S
C770        H775   1.084       .  S
C771        C772   1.411       .  A
C772        N773   1.428       .  S
N773        O777   1.262       .  A
N773        O778   1.260       .  A
N776        O780   1.255       .  A
N776        O779   1.260       .  A
C781        C782   1.419       .  A
C781        C786   1.396       .  A
C781        H788   1.076       .  S
C783        C784   1.417       .  A
C783        N790   1.432       .  S
C784        H789   1.083       .  S
C785        C786   1.410       .  A
C786        N787   1.431       .  S
N787        O791   1.262       .  A
N787        O792   1.262       .  A
N790        O794   1.262       .  A
N790        O793   1.261       .  A
C795        C796   1.402       .  A
C795        C800   1.413       .  A
C795        H802   1.084       .  S
C797        C798   1.403       .  A
C797        N804   1.430       .  S
C798        H803   1.078       .  S
C799        C800   1.432       .  A
C800        N801   1.428       .  S
N801        O805   1.263       .  A
N801        O806   1.261       .  A
N804        O808   1.262       .  A
N804        O807   1.261       .  A
C809        C814   1.423       .  A
C809        H816   1.083       .  S
C810        C811   1.439       .  A
C811        C812   1.403       .  A
C811        N818   1.425       .  S
C812        H817   1.079       .  S
C813        C814   1.432       .  A
C814        N815   1.431       .  S
N815        O820   1.262       .  A
N818        O821   1.260       .  A
C823        C824   1.416       .  A
C823        C828   1.417       .  A
C823        H830   1.076       .  S
C824        C825   1.429       .  A
C825        C826   1.414       .  A
C825        N832   1.431       .  S
C826        C827   1.414       .  A
C826        H831   1.076       .  S
C827        C828   1.428       .  A
C828        N829   1.429       .  S
N829        O833   1.261       .  A
N829        O834   1.262       .  A
N832        O836   1.262       .  A
N832        O835   1.262       .  A
C837        C838   1.417       .  A
C837        C842   1.416       .  A
C837        H844   1.076       .  S
C838        C839   1.426       .  A
C839        C840   1.420       .  A
C839        N846   1.431       .  S
C840        C841   1.422       .  A
C840        H845   1.074       .  S
C841        C842   1.431       .  A
C842        N843   1.432       .  S
N843        O847   1.260       .  A
N843        O848   1.261       .  A
N846        O850   1.261       .  A
N846        O849   1.261       .  A
C851        C852   1.418       .  A
C851        C856   1.421       .  A
C851        H858   1.075       .  S
C852        C853   1.440       .  A
C853        C854   1.424       .  A
C853        N860   1.435       .  S
C854        C855   1.413       .  A
C854        H859   1.076       .  S
C855        C856   1.436       .  A
C856        N857   1.436       .  S
N857        O861   1.262       .  A
N860        O864   1.262       .  A
N860        O863   1.259       .  A
C865        C866   1.419       .  A
C865        C870   1.419       .  A
C865        H872   1.073       .  S
C866        C867   1.425       .  A
C867        C868   1.413       .  A
C867        N874   1.432       .  S
C868        C869   1.420       .  A
C868        H873   1.072       .  S
C869        C870   1.426       .  A
C870        N871   1.431       .  S
N871        O875   1.261       .  A
N871        O876   1.261       .  A
N874        O878   1.261       .  A
C879        C880   1.413       .  A
C879       C1200   1.404       .  A
C879        H886   1.076       .  S
C880        C881   1.431       .  A
C881       C1198   1.418       .  A
C881        N888   1.428       .  S
C882       C1197   1.420   1_545  A
C882        C883   1.418       .  A
C882        H887   1.084       .  S
C883        C884   1.436       .  A
C884       C1195   1.405   1_545  A
C884        N885   1.429       .  S
N885        O889   1.262       .  A
N885        O890   1.259       .  A
N888        O892   1.262       .  A
N888        O891   1.263       .  A
C893        C894   1.422       .  A
C893        C898   1.407       .  A
C893        H900   1.079       .  S
C894        C895   1.435       .  A
C895        C896   1.407       .  A
C895        N902   1.428       .  S
C896        C897   1.394       .  A
C896        H901   1.084       .  S
C897        C898   1.411       .  A
C898        N899   1.430       .  S
N899        O903   1.262       .  A
N899        O904   1.262       .  A
N902        O906   1.263       .  A
N902        O905   1.262       .  A
C907        C908   1.392       .  A
C907        C912   1.402       .  A
C907        H914   1.084       .  S
C908        C909   1.409       .  A
C909        C910   1.410       .  A
C909        N916   1.429       .  S
C910        C911   1.420       .  A
C910        H915   1.083       .  S
C911        C912   1.442       .  A
C912        N913   1.432       .  S
N913        O917   1.260       .  A
N913        O918   1.263       .  A
N916        O920   1.262       .  A
N916        O919   1.262       .  A
C921        C922   1.390       .  A
C921        C926   1.401       .  A
C921        H928   1.084       .  S
C922        C923   1.410       .  A
C923        C924   1.407       .  A
C923        N930   1.431       .  S
C924        C925   1.423       .  A
C924        H929   1.077       .  S
C925        C926   1.438       .  A
C926        N927   1.432       .  S
N927        O931   1.255       .  A
N927        O932   1.264       .  A
N930        O934   1.262       .  A
N930        O933   1.262       .  A
C935        C936   1.392       .  A
C935        C940   1.411       .  A
C935        H942   1.084       .  S
C936        C937   1.401       .  A
C937        C938   1.394       .  A
C937        N944   1.435       .  S
C938        C939   1.419       .  A
C938        H943   1.068       .  S
C939        C940   1.432       .  A
C940        N941   1.419       .  S
N941        O945   1.262       .  A
N941        O946   1.263       .  A
N944        O948   1.262       .  A
N944        O947   1.261       .  A
O949       Cu957   2.027       .  S
O949        C959   1.283       .  A
O950       Cu957   2.026   1_554  S
O950        C960   1.282       .  A
O951       Cu957   1.992       .  S
O951        C961   1.273       .  A
O952       Cu957   1.997   1_554  S
O952        C962   1.273       .  A
O953       Cu958   2.056       .  S
O953        C962   1.286       .  A
O954       Cu958   2.039   1_556  S
O954        C961   1.282       .  A
O955       Cu958   2.020       .  S
O955        C960   1.277       .  A
O956       Cu958   2.008   1_556  S
O956        C959   1.275       .  A
Cu957      Cu958   2.369   1_556  S
C959       C1238   1.487       .  S
C960       C1224   1.493       .  S
C961       C1252   1.476       .  S
C962       C1213   1.494       .  S
C963       C1168   1.619       .  S
C963       C1185   1.598       .  S
C963       C1199   1.595       .  S
C963       C1210   1.596       .  S
C964       C1140   1.588       .  S
C964       C1154   1.614       .  S
C964       C1196   1.605       .  S
C964       C1227   1.586       .  S
C965       C1115   1.596       .  S
C965       C1126   1.604       .  S
C965       C1182   1.594       .  S
C966       C1098   1.586       .  S
C966       C1129   1.595       .  S
C966       C1143   1.597       .  S
O967       Cu975   2.019       .  S
O970       Cu975   2.034       .  S
O971       Cu976   2.061       .  S
O971        C980   1.286   1_655  A
O972        C979   1.283       .  A
O973        C978   1.279       .  A
O974       Cu976   2.043       .  S
O974        C977   1.283   1_655  A
C977       C1112   1.502   1_455  S
C978       C1070   1.493   1_655  S
C981       C1028   1.637       .  S
C981       C1045   1.597       .  S
C981       C1056   1.584       .  S
C981       C1241   1.600       .  S
C982       C1003   1.576       .  S
C982       C1014   1.579       .  S
C982       C1059   1.602       .  S
C982       C1255   1.598       .  S
C983        C986   1.570       .  S
C983       C1031   1.598       .  S
C983       C1084   1.611       .  S
C984        C989   1.608       .  S
C984       C1017   1.603   1_455  S
C984       C1073   1.610       .  S
C985        C986   1.408       .  A
C985        C990   1.393       .  A
C985        H992   1.072       .  S
C987        C988   1.417       .  A
C987        N994   1.440       .  S
C988        C989   1.430       .  A
C988        H993   1.074       .  S
C990        N991   1.442       .  S
N991        O995   1.264       .  A
N991        O996   1.259       .  A
N994        O998   1.261       .  A
N994        O997   1.263       .  A
C999       C1000   1.413       .  A
C999       C1004   1.405       .  A
C999       H1006   1.083       .  S
C1000      C1001   1.431       .  A
C1001      C1002   1.403       .  A
C1001      N1008   1.442       .  S
C1002      C1003   1.411       .  A
C1002      H1007   1.081       .  S
C1003      C1004   1.440       .  A
C1004      N1005   1.444       .  S
N1005      O1009   1.260       .  A
N1005      O1010   1.263       .  A
N1008      O1012   1.260       .  A
C1013      C1014   1.413       .  A
C1013      C1018   1.408       .  A
C1013      H1020   1.079       .  S
C1014      C1015   1.420       .  A
C1015      C1016   1.400       .  A
C1015      N1022   1.427       .  S
C1016      C1017   1.422       .  A
C1016      H1021   1.074       .  S
C1017      C1018   1.436       .  A
C1018      N1019   1.423       .  S
N1019      O1023   1.261   1_655  A
N1019      O1024   1.262       .  A
N1022      O1026   1.256       .  A
N1022      O1025   1.258       .  A
C1027      C1028   1.423       .  A
C1027      C1032   1.415       .  A
C1027      H1034   1.044       .  S
C1028      C1029   1.437       .  A
C1029      C1030   1.409       .  A
C1029      N1036   1.414       .  S
C1030      C1031   1.403       .  A
C1030      H1035   1.078       .  S
C1031      C1032   1.424       .  A
C1032      N1033   1.432       .  S
N1033      O1037   1.261       .  A
N1036      O1040   1.262       .  A
N1036      O1039   1.260       .  A
C1041      C1042   1.402       .  A
C1041      C1046   1.405       .  A
C1041      H1048   1.084       .  S
C1042      C1043   1.444       .  A
C1043      C1044   1.412       .  A
C1043      N1050   1.435       .  S
C1044      C1045   1.409       .  A
C1044      H1049   1.084       .  S
C1045      C1046   1.433       .  A
C1046      N1047   1.418       .  S
N1047      O1051   1.262       .  A
N1047      O1052   1.258       .  A
N1050      O1054   1.260       .  A
N1050      O1053   1.259       .  A
C1055      C1056   1.391       .  A
C1055      H1062   1.077       .  S
C1056      C1057   1.436       .  A
C1057      N1064   1.434       .  S
C1058      C1059   1.419       .  A
C1058      H1063   1.083       .  S
C1059      C1060   1.430       .  A
C1060      N1061   1.414       .  S
N1061      O1065   1.261       .  A
N1061      O1066   1.261       .  A
N1064      O1068   1.261       .  A
N1064      O1067   1.261       .  A
C1069      C1074   1.382       .  A
C1069      H1076   1.086       .  S
C1070      C1071   1.412   1_455  A
C1071      C1072   1.425       .  A
C1071      N1078   1.427       .  S
C1072      C1073   1.435   1_655  A
C1072      H1077   1.084       .  S
C1074      N1075   1.405       .  S
N1075      O1079   1.255       .  A
N1075      O1080   1.261       .  A
N1078      O1082   1.262       .  A
N1078      O1081   1.262       .  A
C1083      C1084   1.430       .  A
C1083      C1088   1.412       .  A
C1083      H1090   1.076       .  S
C1085      C1086   1.417       .  A
C1085      N1092   1.422       .  S
C1086      H1091   1.084       .  S
C1087      C1088   1.408       .  A
C1088      N1089   1.429       .  S
N1089      O1093   1.262       .  A
N1089      O1094   1.260       .  A
N1092      O1096   1.258       .  A
N1092      O1095   1.259       .  A
C1097      C1098   1.418       .  A
C1097      C1102   1.396       .  A
C1097      H1104   1.076       .  S
C1099      C1100   1.417       .  A
C1099      N1106   1.432       .  S
C1100      H1105   1.083       .  S
C1101      C1102   1.410       .  A
C1102      N1103   1.431       .  S
N1103      O1107   1.262       .  A
N1103      O1108   1.262       .  A
N1106      O1110   1.262       .  A
N1106      O1109   1.261       .  A
C1111      C1112   1.402       .  A
C1111      C1116   1.412       .  A
C1111      H1118   1.083       .  S
C1113      C1114   1.404       .  A
C1113      N1120   1.430       .  S
C1114      H1119   1.078       .  S
C1115      C1116   1.431       .  A
C1116      N1117   1.429       .  S
N1117      O1121   1.263       .  A
N1117      O1122   1.261       .  A
N1120      O1124   1.262       .  A
N1120      O1123   1.262       .  A
C1125      C1130   1.424       .  A
C1125      H1132   1.083       .  S
C1126      C1127   1.439       .  A
C1127      C1128   1.404       .  A
C1127      N1134   1.424       .  S
C1128      H1133   1.079       .  S
C1129      C1130   1.432       .  A
C1130      N1131   1.431       .  S
N1131      O1136   1.262       .  A
N1134      O1137   1.260       .  A
C1139      C1140   1.417       .  A
C1139      C1144   1.416       .  A
C1139      H1146   1.075       .  S
C1140      C1141   1.428       .  A
C1141      C1142   1.414       .  A
C1141      N1148   1.431       .  S
C1142      C1143   1.416       .  A
C1142      H1147   1.076       .  S
C1143      C1144   1.428       .  A
C1144      N1145   1.430       .  S
N1145      O1149   1.261       .  A
N1145      O1150   1.262       .  A
N1148      O1152   1.261       .  A
N1148      O1151   1.262       .  A
C1153      C1154   1.418       .  A
C1153      C1158   1.416       .  A
C1153      H1160   1.076       .  S
C1154      C1155   1.427       .  A
C1155      C1156   1.422       .  A
C1155      N1162   1.430       .  S
C1156      C1157   1.423       .  A
C1156      H1161   1.074       .  S
C1157      C1158   1.429       .  A
C1158      N1159   1.430       .  S
N1159      O1163   1.259       .  A
N1159      O1164   1.260       .  A
N1162      O1166   1.261       .  A
N1162      O1165   1.261       .  A
C1167      C1168   1.419       .  A
C1167      C1172   1.419       .  A
C1167      H1174   1.075       .  S
C1168      C1169   1.440       .  A
C1169      C1170   1.426       .  A
C1169      N1176   1.435       .  S
C1170      C1171   1.414       .  A
C1170      H1175   1.076       .  S
C1171      C1172   1.434       .  A
C1172      N1173   1.436       .  S
N1173      O1177   1.261       .  A
N1176      O1180   1.262       .  A
N1176      O1179   1.259       .  A
C1181      C1182   1.420       .  A
C1181      C1186   1.421       .  A
C1181      H1188   1.073       .  S
C1182      C1183   1.424       .  A
C1183      C1184   1.412       .  A
C1183      N1190   1.431       .  S
C1184      C1185   1.420       .  A
C1184      H1189   1.072       .  S
C1185      C1186   1.426       .  A
C1186      N1187   1.431       .  S
N1187      O1191   1.261       .  A
N1187      O1192   1.261       .  A
N1190      O1194   1.261       .  A
C1195      C1196   1.411       .  A
C1195      H1202   1.076       .  S
C1196      C1197   1.432       .  A
C1197      N1204   1.428       .  S
C1198      C1199   1.418       .  A
C1198      H1203   1.084       .  S
C1199      C1200   1.434       .  A
C1200      N1201   1.430       .  S
N1201      O1205   1.262       .  A
N1201      O1206   1.259       .  A
N1204      O1208   1.262       .  A
N1204      O1207   1.263       .  A
C1209      C1210   1.420       .  A
C1209      C1214   1.407       .  A
C1209      H1216   1.079       .  S
C1210      C1211   1.436       .  A
C1211      C1212   1.409       .  A
C1211      N1218   1.428       .  S
C1212      C1213   1.394       .  A
C1212      H1217   1.084       .  S
C1213      C1214   1.412       .  A
C1214      N1215   1.429       .  S
N1215      O1219   1.262       .  A
N1215      O1220   1.262       .  A
N1218      O1222   1.263       .  A
N1218      O1221   1.262       .  A
C1223      C1224   1.392       .  A
C1223      C1228   1.403       .  A
C1223      H1230   1.084       .  S
C1224      C1225   1.410       .  A
C1225      C1226   1.411       .  A
C1225      N1232   1.429       .  S
C1226      C1227   1.421       .  A
C1226      H1231   1.083       .  S
C1227      C1228   1.442       .  A
C1228      N1229   1.431       .  S
N1229      O1233   1.260       .  A
N1229      O1234   1.263       .  A
N1232      O1236   1.262       .  A
N1232      O1235   1.262       .  A
C1237      C1238   1.390       .  A
C1237      C1242   1.402       .  A
C1237      H1244   1.084       .  S
C1238      C1239   1.409       .  A
C1239      C1240   1.407       .  A
C1239      N1246   1.430       .  S
C1240      C1241   1.424       .  A
C1240      H1245   1.077       .  S
C1241      C1242   1.439       .  A
C1242      N1243   1.431       .  S
N1243      O1247   1.253       .  A
N1243      O1248   1.264       .  A
N1246      O1250   1.262       .  A
N1246      O1249   1.262       .  A
C1251      C1252   1.393       .  A
C1251      C1256   1.413       .  A
C1251      H1258   1.084       .  S
C1252      C1253   1.403       .  A
C1253      C1254   1.396       .  A
C1253      N1260   1.436       .  S
C1254      C1255   1.420       .  A
C1254      H1259   1.068       .  S
C1255      C1256   1.434       .  A
C1256      N1257   1.420       .  S
N1257      O1261   1.262       .  A
N1257      O1262   1.263       .  A
N1260      O1264   1.263       .  A
N1260      O1263   1.261       .  A
