geometry optimzed in LAMMPS
_audit_creation_date              2020-12-01 
_audit_creation_method            'lammps2cif' 
_symmetry_space_group_name_H-M    'P1' 
_symmetry_Int_Tables_number       1 
_symmetry_cell_setting            triclinic 
loop_ 
_symmetry_equiv_pos_as_xyz 
  x,y,z 
_cell_length_a                    36.89264657 
_cell_length_b                    37.04539847405377 
_cell_length_c                    36.410963119175236 
_cell_angle_alpha                 89.08055700985167 
_cell_angle_beta                  90.74981993236703 
_cell_angle_gamma                 88.71072925726033 
loop_ 
_atom_site_label 
_atom_site_type_symbol 
_atom_site_fract_x 
_atom_site_fract_y 
_atom_site_fract_z 
_atom_site_charge 
C1          C  0.39076970  0.61889578  0.61099145    -0.01000
N2          N  0.44794206  0.43519481  0.54559650    -0.04600
N3          N  0.43773172  0.40836271  0.56739863    -0.56700
N4          N  0.42057055  0.45788803  0.46087240    -0.04300
N5          N  0.39257681  0.44570833  0.44092257    -0.58900
N6          N  0.44627782  0.43231536  0.46264283    -0.03900
N7          N  0.43586363  0.40346905  0.44451594    -0.56700
N8          N  0.42264038  0.46112194  0.54509823    -0.03600
N9          N  0.39542845  0.45166188  0.56692460    -0.59200
C10         C  0.40493096  0.41831496  0.58119909     0.97600
C11         C  0.40226330  0.41121042  0.43062640     0.97300
N12         N  0.45149718  0.57553383  0.45693976    -0.04800
N13         N  0.44215070  0.60276842  0.43381352    -0.57300
N14         N  0.42575800  0.55229590  0.54339599    -0.02900
N15         N  0.40020863  0.56318122  0.56684041    -0.58600
N16         N  0.45236545  0.57579872  0.54306391    -0.04800
N17         N  0.44479495  0.60240792  0.56642077    -0.57600
N18         N  0.42495063  0.55192237  0.45807138    -0.02600
N19         N  0.39767026  0.56364564  0.43634206    -0.58700
Mn20       Mn  0.42349229  0.50608141  0.50150505     1.18400
C21         C  0.40809867  0.59559886  0.42083720     0.99600
C22         C  0.41184341  0.59487163  0.58131627     1.00300
N23         N  0.53632129  0.42856051  0.45843081    -0.04900
N24         N  0.54218299  0.40269411  0.43369397    -0.61200
N25         N  0.56459376  0.45492957  0.54466302    -0.03700
N26         N  0.59062822  0.44703246  0.56926591    -0.61800
N27         N  0.53878167  0.43091884  0.54649449    -0.04400
N28         N  0.54747118  0.40627120  0.57255619    -0.61400
N29         N  0.56293032  0.45193581  0.45740826    -0.03300
N30         N  0.58713038  0.44140177  0.43236757    -0.62100
Mn31       Mn  0.49274118  0.43208251  0.50337186     1.10700
C32         C  0.57396694  0.41075024  0.41662496     1.00900
C33         C  0.57989777  0.41675911  0.58727940     1.00900
N34         N  0.54465160  0.57000926  0.54137482    -0.04400
N35         N  0.55807816  0.59751676  0.55974762    -0.59700
N36         N  0.56883878  0.54360992  0.45917039    -0.03700
N37         N  0.59919382  0.55316613  0.44253827    -0.56500
N38         N  0.54566780  0.57151155  0.45982253    -0.05000
N39         N  0.56103767  0.60008924  0.44412809    -0.59300
N40         N  0.56857894  0.54279235  0.54204302    -0.04000
N41         N  0.59757176  0.55158720  0.56192135    -0.56500
Mn42       Mn  0.49804617  0.57292391  0.50004968     1.20200
Mn43       Mn  0.56568070  0.49779622  0.50040508     1.10100
Cl44       Cl  0.49484356  0.50237895  0.50092287    -0.84500
C45         C  0.59084055  0.58584149  0.57361330     0.97900
C46         C  0.59448378  0.58857306  0.43270747     0.97700
C47         C  0.60608739  0.39256254  0.61241454    -0.01000
C48         C  0.38079498  0.38513570  0.40365152    -0.01000
C49         C  0.62264526  0.61092141  0.40918657    -0.01000
C50         C  0.38326529  0.61918407  0.39241084    -0.01000
C51         C  0.59608845  0.38418445  0.38961869    -0.01000
C52         C  0.38186773  0.39502525  0.60956891    -0.01000
C53         C  0.61936027  0.60968009  0.59437183    -0.01000
N54         N  0.31152580  0.25565774  0.99546785    -0.35100
N55         N  0.25277374  0.26798878  0.93917487    -0.55700
N56         N  0.19023754  0.29857599  0.01264188    -0.35100
N57         N  0.27750703  0.29100194  0.05501089    -0.55700
C58         C  0.32479748  0.25089990  0.96170704     0.28500
C59         C  0.33887815  0.26768534  0.01651042     0.28500
C60         C  0.19244837  0.27348448  0.98649984     0.28500
C61         C  0.20445258  0.28316594  0.04323899     0.28500
C62         C  0.27020666  0.23852287  0.92666440     0.37100
C63         C  0.21789103  0.26634395  0.92788678     0.37100
C64         C  0.30971838  0.28558576  0.07191946     0.37100
C65         C  0.25382092  0.30309602  0.08000515     0.37100
C66         C  0.36089910  0.26015382  0.96083246    -0.20400
C67         C  0.36962875  0.27173012  0.99556997    -0.20400
C68         C  0.20549362  0.24088124  0.00148448    -0.20400
C69         C  0.21363017  0.24729005  0.03765243    -0.20400
C70         C  0.24621570  0.21746481  0.90720512    -0.21400
C71         C  0.21285545  0.23513242  0.90829304    -0.21400
C72         C  0.30685778  0.29491444  0.10860738    -0.21400
C73         C  0.27125562  0.30729271  0.11348488    -0.21400
C74         C  0.30689492  0.23064431  0.93541405    -0.16800
C75         C  0.33813480  0.26599059  0.05495296    -0.16800
C76         C  0.21631475  0.30372629  0.07243670    -0.16800
C77         C  0.19079150  0.28240946  0.94893777    -0.16800
H78         H  0.37927000  0.25706482  0.93810494     0.16100
H79         H  0.39607666  0.28006958  0.00480545     0.16100
H80         H  0.21183628  0.21628764  0.98702258     0.16100
H81         H  0.22730014  0.22878590  0.05680748     0.16100
H82         H  0.25133668  0.19104500  0.89589200     0.14400
H83         H  0.18721858  0.22437303  0.89939829     0.14400
H84         H  0.32762190  0.29156764  0.12973028     0.14400
H85         H  0.25893873  0.31473836  0.13916881     0.14400
H86         H  0.28648936  0.24669409  0.00453650     0.27700
H87         H  0.18464068  0.32616082  0.00880857     0.27700
N88         N  0.21728010  0.00025349  0.14336974    -0.35100
N89         N  0.18082885  0.06023658  0.18113048    -0.55700
N90         N  0.14514910  0.00189645  0.21504645    -0.35100
N91         N  0.17938257  0.94136974  0.17521696    -0.55700
C92         C  0.22181006  0.03000690  0.12256228     0.28500
C93         C  0.22433081  0.97163018  0.12213592     0.28500
C94         C  0.12500074  0.03163603  0.22207846     0.28500
C95         C  0.12306237  0.97358830  0.21598119     0.28500
C96         C  0.21224942  0.07460178  0.17034891     0.37100
C97         C  0.17137920  0.07537871  0.21328774     0.37100
C98         C  0.21123816  0.92511525  0.16680886     0.37100
C99         C  0.16759406  0.92558136  0.20622857     0.37100
C100        C  0.22988075  0.02016047  0.08689865    -0.20400
C101        C  0.23183812  0.98316061  0.08672583    -0.20400
C102        C  0.08916234  0.02276720  0.22641133    -0.20400
C103        C  0.08776971  0.98595777  0.22201375    -0.20400
C104        C  0.22270435  0.10041030  0.19536876    -0.21400
C105        C  0.19661824  0.10087423  0.22281424    -0.21400
C106        C  0.21928511  0.89738835  0.19174188    -0.21400
C107        C  0.19144928  0.89778183  0.21709229    -0.21400
C108        C  0.23059627  0.06290091  0.13845751    -0.16800
C109        C  0.23255174  0.93749757  0.13751715    -0.16800
C110        C  0.13710213  0.93901590  0.22529779    -0.16800
C111        C  0.14083561  0.06367530  0.23323048    -0.16800
H112        H  0.23708762  0.03751400  0.06415333     0.16100
H113        H  0.24039160  0.96722927  0.06371750     0.16100
H114        H  0.06710101  0.04047521  0.23465254     0.16100
H115        H  0.06393362  0.97012759  0.22609109     0.16100
H116        H  0.24686379  0.11641803  0.19442788     0.14400
H117        H  0.19677736  0.11717316  0.24721130     0.14400
H118        H  0.24317143  0.87987887  0.19240506     0.14400
H119        H  0.18965735  0.88062815  0.24131205     0.14400
H120        H  0.21593992  0.99951871  0.17196650     0.27700
H121        H  0.17341929  0.00025062  0.21609820     0.27700
N122        N  0.99564786  0.28451644  0.35538165    -0.35100
N123        N  0.05552424  0.31978938  0.31404596    -0.55700
N124        N  0.99191074  0.34851722  0.27733801    -0.35100
N125        N  0.93231467  0.31525873  0.32077990    -0.55700
C126        C  0.02725465  0.28044836  0.37388799     0.28500
C127        C  0.96870481  0.27874798  0.37928385     0.28500
C128        C  0.01869244  0.37206298  0.27268987     0.28500
C129        C  0.96046999  0.36711061  0.27496217     0.28500
C130        C  0.06796440  0.28614291  0.32266545     0.37100
C131        C  0.06614576  0.32800837  0.27948722     0.37100
C132        C  0.92005561  0.28370583  0.33415593     0.37100
C133        C  0.91785869  0.32074084  0.28681524     0.37100
C134        C  0.02057284  0.27471115  0.41088182    -0.20400
C135        C  0.98337848  0.27341781  0.41429609    -0.20400
C136        C  0.00439741  0.40700635  0.27128457    -0.20400
C137        C  0.96700891  0.40367288  0.27118666    -0.20400
C138        C  0.08737504  0.27251317  0.29340166    -0.21400
C139        C  0.08599285  0.29896221  0.26586323    -0.21400
C140        C  0.89578608  0.26949149  0.30908190    -0.21400
C141        C  0.89478241  0.29282168  0.27870512    -0.21400
C142        C  0.05811982  0.26784167  0.35553420    -0.16800
C143        C  0.93468179  0.26714043  0.36682125    -0.16800
C144        C  0.92932150  0.34938970  0.26367485    -0.16800
C145        C  0.05258545  0.35962466  0.26032778    -0.16800
H146        H  0.04034061  0.26702625  0.43197082     0.16100
H147        H  0.96942017  0.26537157  0.43887617     0.16100
H148        H  0.01895660  0.43141978  0.26532239     0.16100
H149        H  0.94715148  0.42498661  0.26523339     0.16100
H150        H  0.09902888  0.24560858  0.29101222     0.14400
H151        H  0.09587049  0.29572377  0.23825181     0.14400
H152        H  0.88214038  0.24403211  0.31131697     0.14400
H153        H  0.88035534  0.28850935  0.25317194     0.14400
H154        H  0.99307819  0.28355937  0.32682517     0.27700
H155        H  0.99445894  0.32047251  0.27504515     0.27700
N156        N  0.49644951  0.31770592  0.29040602    -0.35100
N157        N  0.52118408  0.31307091  0.19267888    -0.55700
N158        N  0.46918423  0.25472018  0.18213037    -0.35100
N159        N  0.42982839  0.25706781  0.25039228    -0.55700
C160        C  0.52466842  0.31159266  0.26857640     0.28500
C161        C  0.48220032  0.28514227  0.29674069     0.28500
C162        C  0.48155253  0.26470892  0.14874556     0.28500
C163        C  0.43830080  0.23673757  0.17636844     0.28500
C164        C  0.54690976  0.33120012  0.21137190     0.37100
C165        C  0.53705882  0.29590250  0.16455523     0.37100
C166        C  0.42488194  0.25884870  0.28699533     0.37100
C167        C  0.41873747  0.22465886  0.23916665     0.37100
C168        C  0.53061049  0.27488814  0.26366774    -0.20400
C169        C  0.50342749  0.25793125  0.28177189    -0.20400
C170        C  0.45738204  0.25437974  0.12170808    -0.20400
C171        C  0.42989904  0.23697305  0.13935060    -0.20400
C172        C  0.57967934  0.32740892  0.19346587    -0.21400
C173        C  0.57353686  0.30430364  0.16412398    -0.21400
C174        C  0.40973579  0.22716051  0.29946791    -0.21400
C175        C  0.40588977  0.20527721  0.26900955    -0.21400
C176        C  0.54161489  0.33890114  0.24909758    -0.16800
C177        C  0.44681762  0.28105565  0.30853708    -0.16800
C178        C  0.42283964  0.21334037  0.20246083    -0.16800
C179        C  0.51846711  0.27055816  0.14250034    -0.16800
H180        H  0.55097397  0.26214326  0.24678000     0.16100
H181        H  0.49789098  0.22936702  0.28124115     0.16100
H182        H  0.46106635  0.25609510  0.09233475     0.16100
H183        H  0.40781319  0.22305863  0.12678894     0.16100
H184        H  0.60581630  0.33656806  0.20275626     0.14400
H185        H  0.59377617  0.29371967  0.14567597     0.14400
H186        H  0.40586082  0.21909040  0.32782023     0.14400
H187        H  0.39688693  0.17769209  0.26933175     0.14400
H188        H  0.48492599  0.34294984  0.29613294     0.27700
H189        H  0.48392800  0.25494162  0.20674215     0.27700
N190        N  0.26473677  0.15299502  0.51147151    -0.35100
N191        N  0.30233498  0.18996758  0.57568715    -0.55700
N192        N  0.33015551  0.22809765  0.51206463    -0.35100
N193        N  0.29661552  0.18721957  0.44938798    -0.55700
C194        C  0.25945002  0.13341817  0.54231939     0.28500
C195        C  0.25577930  0.13210647  0.48277794     0.28500
C196        C  0.35342745  0.22762769  0.54060257     0.28500
C197        C  0.34971514  0.22648318  0.48159095     0.28500
C198        C  0.26841174  0.18212121  0.58612046     0.37100
C199        C  0.30969359  0.22413212  0.58632911     0.37100
C200        C  0.26450607  0.17760311  0.43521555     0.37100
C201        C  0.30407567  0.22017914  0.43569707     0.37100
C202        C  0.24936965  0.09874757  0.53301868    -0.20400
C203        C  0.24680448  0.09804658  0.49528895    -0.20400
C204        C  0.38847616  0.22130015  0.52857487    -0.20400
C205        C  0.38621601  0.22243935  0.49045114    -0.20400
C206        C  0.25351697  0.21119201  0.60443570    -0.21400
C207        C  0.27907502  0.23825999  0.60349958    -0.21400
C208        C  0.25148474  0.20413875  0.41089055    -0.21400
C209        C  0.27654588  0.23163413  0.41157617    -0.21400
C210        C  0.25075403  0.15012859  0.57561767    -0.16800
C211        C  0.24663442  0.14662829  0.44783201    -0.16800
C212        C  0.33430898  0.23927979  0.44870735    -0.16800
C213        C  0.34183209  0.24188863  0.57393088    -0.16800
H214        H  0.24042795  0.07769719  0.55151173     0.16100
H215        H  0.23598744  0.07637156  0.47917099     0.16100
H216        H  0.41311903  0.22165440  0.54502456     0.16100
H217        H  0.40869464  0.22339711  0.47169345     0.16100
H218        H  0.22601735  0.21388504  0.61419458     0.14400
H219        H  0.27339381  0.26588758  0.61087727     0.14400
H220        H  0.22572540  0.20471289  0.39629537     0.14400
H221        H  0.27366527  0.25753668  0.39760080     0.14400
H222        H  0.26758564  0.18097321  0.51049457     0.27700
H223        H  0.30262038  0.23550373  0.51295285     0.27700
N224        N  0.22607787  0.51053479  0.34548363    -0.35100
N225        N  0.18272340  0.57381936  0.32201762    -0.55700
N226        N  0.13404735  0.52039317  0.25295053    -0.35100
N227        N  0.19288487  0.45592136  0.30308747    -0.55700
C228        C  0.23071261  0.53608354  0.37098504     0.28500
C229        C  0.23796847  0.47910685  0.36092609     0.28500
C230        C  0.12900316  0.54591886  0.27815118     0.28500
C231        C  0.13332443  0.48840270  0.27031490     0.28500
C232        C  0.21306883  0.58941475  0.33441204     0.37100
C233        C  0.16802317  0.59444970  0.29442505     0.37100
C234        C  0.22306547  0.43700426  0.31239806     0.37100
C235        C  0.17695352  0.43969281  0.27451616     0.37100
C236        C  0.24338558  0.52042006  0.40364601    -0.20400
C237        C  0.24827605  0.48432034  0.39719333    -0.20400
C238        C  0.12228366  0.52998494  0.31207798    -0.20400
C239        C  0.12509982  0.49314995  0.30707453    -0.20400
C240        C  0.21761974  0.62168055  0.31538201    -0.21400
C241        C  0.18885491  0.62499204  0.29002953    -0.21400
C242        C  0.22622881  0.40689423  0.29048154    -0.21400
C243        C  0.19658180  0.40846481  0.26637397    -0.21400
C244        C  0.23635968  0.57216329  0.36105191    -0.16800
C245        C  0.24646064  0.44820573  0.34061746    -0.16800
C246        C  0.14868035  0.45765634  0.25416296    -0.16800
C247        C  0.13998547  0.58123627  0.27089029    -0.16800
H248        H  0.25235485  0.53429644  0.42795965     0.16100
H249        H  0.26072039  0.46482138  0.41614074     0.16100
H250        H  0.11911461  0.54342140  0.33805538     0.16100
H251        H  0.12451666  0.47251359  0.32842813     0.16100
H252        H  0.23982355  0.64004062  0.31844126     0.14400
H253        H  0.18492367  0.64627404  0.26955878     0.14400
H254        H  0.24769774  0.38649872  0.29137469     0.14400
H255        H  0.19107309  0.38977086  0.24457816     0.14400
H256        H  0.22125065  0.51521210  0.31745433     0.27700
H257        H  0.14334556  0.52457053  0.22626047     0.27700
N258        N  0.33882194  0.71514841  0.99283219    -0.35100
N259        N  0.30761492  0.68138988  0.92922216    -0.55700
N260        N  0.27152728  0.64466672  0.99001183    -0.35100
N261        N  0.30546215  0.67562363  0.05447230    -0.55700
C262        C  0.36290556  0.71541211  0.96561549     0.28500
C263        C  0.35726959  0.71685782  0.02460889     0.28500
C264        C  0.26401125  0.62799808  0.95835244     0.28500
C265        C  0.26611891  0.62084437  0.01764389     0.28500
C266        C  0.31994039  0.71304336  0.91612072     0.37100
C267        C  0.27409481  0.67676991  0.91516597     0.37100
C268        C  0.31024289  0.70938204  0.06719622     0.37100
C269        C  0.27346751  0.66396192  0.06679107     0.37100
C270        C  0.39782269  0.71498756  0.98056312    -0.20400
C271        C  0.39415674  0.71595856  0.01833816    -0.20400
C272        C  0.25593130  0.59230292  0.96540914    -0.20400
C273        C  0.25744352  0.58764854  0.00301604    -0.20400
C274        C  0.29462267  0.72834609  0.89170548    -0.21400
C275        C  0.26519664  0.70537408  0.89135649    -0.21400
C276        C  0.28075775  0.71909302  0.08855453    -0.21400
C277        C  0.25821240  0.68971428  0.08948789    -0.21400
C278        C  0.35167310  0.72859091  0.93090608    -0.16800
C279        C  0.33972481  0.73062486  0.05514104    -0.16800
C280        C  0.25665685  0.63283030  0.05280532    -0.16800
C281        C  0.25219463  0.64798315  0.92728171    -0.16800
H282        H  0.42306806  0.71735735  0.96618521     0.16100
H283        H  0.41562270  0.71988824  0.03829741     0.16100
H284        H  0.24563471  0.57315903  0.94592728     0.16100
H285        H  0.24885633  0.56380816  0.01761804     0.16100
H286        H  0.29614469  0.75420692  0.87762776     0.14400
H287        H  0.23975751  0.71024776  0.87682891     0.14400
H288        H  0.27406572  0.74506203  0.09996082     0.14400
H289        H  0.23210470  0.68898646  0.10257983     0.14400
H290        H  0.31098244  0.72049458  0.98979730     0.27700
H291        H  0.27280403  0.67260530  0.99268976     0.27700
N292        N  0.82512098  0.24323541  0.00558939    -0.35100
N293        N  0.79793156  0.20539614  0.94208463    -0.55700
N294        N  0.73504860  0.15484560  0.00358968    -0.35100
N295        N  0.78794609  0.20957448  0.06586179    -0.55700
C296        C  0.84794494  0.24650138  0.97723829     0.28500
C297        C  0.84471724  0.24807408  0.03643048     0.28500
C298        C  0.75872199  0.15256205  0.97610996     0.28500
C299        C  0.75397188  0.15311497  0.03499966     0.28500
C300        C  0.80680088  0.23720856  0.92688070     0.37100
C301        C  0.76818582  0.19316434  0.92501905     0.37100
C302        C  0.79755197  0.24033681  0.08156943     0.37100
C303        C  0.75768567  0.19765263  0.08169877     0.37100
C304        C  0.88306252  0.25059951  0.98997608    -0.20400
C305        C  0.88104394  0.25184024  0.02761496    -0.20400
C306        C  0.79342995  0.14590322  0.99007262    -0.20400
C307        C  0.79036726  0.14601660  0.02783385    -0.20400
C308        C  0.78254234  0.24546156  0.89826867    -0.21400
C309        C  0.75836566  0.21701378  0.89665536    -0.21400
C310        C  0.77346716  0.24850033  0.10933204    -0.21400
C311        C  0.74782916  0.22117923  0.10936231    -0.21400
C312        C  0.83495004  0.25784251  0.94258483    -0.16800
C313        C  0.82808973  0.25897641  0.06917165    -0.16800
C314        C  0.73885819  0.16821125  0.06655899    -0.16800
C315        C  0.74816453  0.16457113  0.94073050    -0.16800
H316        H  0.90658371  0.25670704  0.97373812     0.16100
H317        H  0.90340678  0.25807056  0.04564854     0.16100
H318        H  0.81840302  0.14414565  0.97487285     0.16100
H319        H  0.81263773  0.14483958  0.04749653     0.16100
H320        H  0.78068888  0.27000088  0.88183385     0.14400
H321        H  0.73497561  0.21553623  0.87855330     0.14400
H322        H  0.77388507  0.27171546  0.12697538     0.14400
H323        H  0.72441688  0.21944969  0.12684477     0.14400
H324        H  0.79680719  0.24437568  0.00360258     0.27700
H325        H  0.70792097  0.16340624  0.00106857     0.27700
N326        N  0.99296581  0.32548233  0.75089981    -0.35100
N327        N  0.05203658  0.28900628  0.71517176    -0.55700
N328        N  0.99363283  0.27058352  0.66696624    -0.35100
N329        N  0.93428763  0.30825207  0.70154059    -0.55700
C330        C  0.02394647  0.33863915  0.76422404     0.28500
C331        C  0.96750027  0.35175141  0.75410020     0.28500
C332        C  0.02398647  0.26659974  0.64741593     0.28500
C333        C  0.96560310  0.27241480  0.64316629     0.28500
C334        C  0.06457479  0.28929223  0.75006558     0.37100
C335        C  0.06517938  0.25895870  0.69941970     0.37100
C336        C  0.91681411  0.31739674  0.73243381     0.37100
C337        C  0.91746331  0.27997270  0.68659139     0.37100
C338        C  0.01866736  0.37403707  0.77431034    -0.20400
C339        C  0.98290808  0.38270408  0.76762806    -0.20400
C340        C  0.01561076  0.26854935  0.61017057    -0.20400
C341        C  0.97830883  0.27164989  0.60747462    -0.20400
C342        C  0.08711023  0.25953876  0.75685862    -0.21400
C343        C  0.08713496  0.23982471  0.72466543    -0.21400
C344        C  0.88711088  0.29553364  0.73684422    -0.21400
C345        C  0.88773272  0.27135313  0.70769522    -0.21400
C346        C  0.05356170  0.31634551  0.77452767    -0.16800
C347        C  0.93073277  0.34381914  0.75621961    -0.16800
C348        C  0.93103038  0.26287771  0.65477217    -0.16800
C349        C  0.05475963  0.24945104  0.66320756    -0.16800
H350        H  0.03768127  0.39029475  0.78840022     0.16100
H351        H  0.96901554  0.40724175  0.77589243     0.16100
H352        H  0.03383476  0.26313171  0.58775720     0.16100
H353        H  0.96251126  0.26977452  0.58240617     0.16100
H354        H  0.10058316  0.25205478  0.78252890     0.14400
H355        H  0.10052791  0.21388379  0.72104959     0.14400
H356        H  0.86820717  0.29585873  0.75931555     0.14400
H357        H  0.86907525  0.24972643  0.70301426     0.14400
H358        H  0.98832000  0.29825487  0.74612717     0.27700
H359        H  0.99137043  0.26497966  0.69502773     0.27700
N360        N  0.76201958  0.49082990  0.34221471    -0.35100
N361        N  0.81242300  0.54832322  0.32597643    -0.55700
N362        N  0.84443884  0.49592867  0.24725688    -0.35100
N363        N  0.78105241  0.43879618  0.28729737    -0.55700
C364        C  0.76421604  0.51233653  0.37174591     0.28500
C365        C  0.74906503  0.45913546  0.35425860     0.28500
C366        C  0.85514842  0.51550127  0.27570340     0.28500
C367        C  0.84230191  0.46196249  0.25913097     0.28500
C368        C  0.78485311  0.56662473  0.34118208     0.37100
C369        C  0.82644783  0.56857119  0.29874047     0.37100
C370        C  0.75006155  0.42413056  0.29760312     0.37100
C371        C  0.79182760  0.42421913  0.25543790     0.37100
C372        C  0.75449403  0.49338737  0.40309505    -0.20400
C373        C  0.74480043  0.45973468  0.39200530    -0.20400
C374        C  0.86144260  0.49344936  0.30640400    -0.20400
C375        C  0.85318038  0.45896437  0.29573765    -0.20400
C376        C  0.78152675  0.60047072  0.32429708    -0.21400
C377        C  0.80811454  0.60169766  0.29711681    -0.21400
C378        C  0.74012594  0.39866236  0.27202803    -0.21400
C379        C  0.76697754  0.39850365  0.24516625    -0.21400
C380        C  0.76275207  0.55010456  0.36804293    -0.16800
C381        C  0.73369384  0.43348547  0.33106285    -0.16800
C382        C  0.82354987  0.43715057  0.23816784    -0.16800
C383        C  0.85151151  0.55301336  0.27378003    -0.16800
H384        H  0.75144752  0.50362713  0.43052013     0.16100
H385        H  0.73318438  0.43908082  0.40927952     0.16100
H386        H  0.86883246  0.50169578  0.33382708     0.16100
H387        H  0.85266895  0.43509012  0.31323155     0.16100
H388        H  0.76130339  0.62123053  0.32978277     0.14400
H389        H  0.81202877  0.62339564  0.27741901     0.14400
H390        H  0.71684498  0.38144403  0.27313699     0.14400
H391        H  0.76844119  0.38061833  0.22204669     0.14400
H392        H  0.76350379  0.49925451  0.31476198     0.27700
H393        H  0.83470185  0.50561730  0.22181595     0.27700
N394        N  0.22879254  0.51885854  0.65955211    -0.35100
N395        N  0.18897937  0.57846518  0.69155634    -0.55700
N396        N  0.15532218  0.51917073  0.73062864    -0.35100
N397        N  0.19280198  0.46045241  0.69784571    -0.55700
C398        C  0.23286180  0.54741312  0.63671285     0.28500
C399        C  0.23481955  0.48891101  0.63991271     0.28500
C400        C  0.13330067  0.54834992  0.73223941     0.28500
C401        C  0.13487574  0.49019927  0.73641878     0.28500
C402        C  0.21975332  0.59441045  0.68077667     0.37100
C403        C  0.17759078  0.59416003  0.72284711     0.37100
C404        C  0.22393234  0.44399024  0.68779585     0.37100
C405        C  0.18206787  0.44476497  0.72947513     0.37100
C406        C  0.23997745  0.53524526  0.60158752    -0.20400
C407        C  0.24149014  0.49824412  0.60372018    -0.20400
C408        C  0.09787906  0.53814639  0.73705814    -0.20400
C409        C  0.09877341  0.50118179  0.73972405    -0.20400
C410        C  0.22750851  0.62201021  0.70487926    -0.21400
C411        C  0.20073986  0.62171768  0.73175844    -0.21400
C412        C  0.23272484  0.41618041  0.71250587    -0.21400
C413        C  0.20600124  0.41675250  0.73924099    -0.21400
C414        C  0.24025222  0.58189094  0.65019649    -0.16800
C415        C  0.24323641  0.45535614  0.65653020    -0.16800
C416        C  0.15089119  0.45724828  0.74822431    -0.16800
C417        C  0.14700306  0.58141941  0.74226275    -0.16800
H418        H  0.24573025  0.55077283  0.57718505     0.16100
H419        H  0.24902846  0.48054278  0.58163945     0.16100
H420        H  0.07460368  0.55560272  0.74204907     0.16100
H421        H  0.07549129  0.48534222  0.74594596     0.16100
H422        H  0.25042940  0.63969796  0.70384074     0.14400
H423        H  0.19900463  0.63907752  0.75532133     0.14400
H424        H  0.25609697  0.39803904  0.71173040     0.14400
H425        H  0.20460508  0.39908662  0.76311439     0.14400
H426        H  0.22782145  0.51980053  0.68815305     0.27700
H427        H  0.18359496  0.51942297  0.73240775     0.27700
C428        C  0.88599237  0.62959947  0.90461299    -0.01000
N429        N  0.06546204  0.55659241  0.95740002    -0.04600
N430        N  0.08878005  0.56580929  0.93110120    -0.56700
N431        N  0.04469238  0.57706560  0.04770131    -0.04300
N432        N  0.05459216  0.60116862  0.07269714    -0.58900
N433        N  0.06975855  0.55135398  0.04561230    -0.03900
N434        N  0.09609828  0.55728475  0.07010299    -0.56700
N435        N  0.04061927  0.58250440  0.96088520    -0.03600
N436        N  0.04752443  0.60956126  0.93746610    -0.59200
C437        C  0.07740104  0.59912747  0.91792837     0.97600
C438        C  0.08674326  0.58857662  0.08765818     0.97300
N439        N  0.93076755  0.54781791  0.05163882    -0.04800
N440        N  0.90885961  0.55165043  0.08032904    -0.57300
N441        N  0.95092779  0.58095666  0.96554247    -0.02900
N442        N  0.94209961  0.60874968  0.94338477    -0.58600
N443        N  0.92517658  0.55656353  0.96466306    -0.04800
N444        N  0.89854386  0.56833280  0.94178917    -0.57600
N445        N  0.95559547  0.57310852  0.05190313    -0.02600
N446        N  0.95038212  0.59429225  0.08061131    -0.58700
Mn447      Mn  0.99772245  0.57862643  0.00648349     1.18400
C448        C  0.92132022  0.58076151  0.09872306     0.99600
C449        C  0.90953673  0.60090543  0.92790757     1.00300
N450        N  0.06888378  0.46470508  0.04151842    -0.04900
N451        N  0.09372688  0.46002671  0.06785373    -0.61200
N452        N  0.04063413  0.44141287  0.95530919    -0.03700
N453        N  0.04896499  0.41663718  0.93049065    -0.61800
N454        N  0.06587190  0.46628406  0.95580679    -0.04400
N455        N  0.09167240  0.45767591  0.93201535    -0.61400
N456        N  0.04549315  0.43811025  0.04226578    -0.03300
N457        N  0.05523506  0.41467622  0.06918395    -0.62100
Mn458      Mn  0.06762537  0.50962363  0.99964356     1.10700
C459        C  0.08507079  0.42912573  0.08577889     1.00900
C460        C  0.08108155  0.42658131  0.91579189     1.00900
N461        N  0.92433091  0.46468794  0.96047641    -0.04400
N462        N  0.89621319  0.45679718  0.93879690    -0.59700
N463        N  0.95485168  0.43363907  0.04460143    -0.03700
N464        N  0.94649544  0.40639860  0.06761759    -0.56500
N465        N  0.92964009  0.45948998  0.04588302    -0.05000
N466        N  0.90448755  0.45011163  0.06974230    -0.59300
N467        N  0.94974404  0.43897401  0.95836757    -0.04000
N468        N  0.93888448  0.41393939  0.93468198    -0.56500
Mn469      Mn  0.92716949  0.50747610  0.00529206     1.20200
Mn470      Mn  0.99802160  0.43746489  0.00002742     1.10100
Cl471      Cl  0.99743368  0.50815432  0.00221820    -0.84500
C472        C  0.90524740  0.42516953  0.92193652     0.97900
C473        C  0.91496884  0.41713866  0.08419170     0.97700
C474        C  0.88967224  0.39502901  0.11159660    -0.01000
C475        C  0.10705902  0.40348837  0.89035717    -0.01000
C476        C  0.09784842  0.62321946  0.88741469    -0.01000
C477        C  0.87961397  0.40394383  0.89380924    -0.01000
C478        C  0.90274167  0.59987080  0.13226174    -0.01000
N479        N  0.74753207  0.50684828  0.69677395    -0.35100
N480        N  0.74760002  0.45826464  0.75968754    -0.55700
N481        N  0.75066213  0.52717180  0.79940420    -0.35100
N482        N  0.75197616  0.57574185  0.73637557    -0.55700
C483        C  0.74851879  0.47351543  0.68294813     0.28500
C484        C  0.76110170  0.52920104  0.67127889     0.28500
C485        C  0.74040806  0.50440010  0.82640181     0.28500
C486        C  0.75322308  0.56012653  0.81416757     0.28500
C487        C  0.72612095  0.44066475  0.73584060     0.37100
C488        C  0.73839456  0.44780195  0.79391579     0.37100
C489        C  0.76050170  0.58605945  0.70180365     0.37100
C490        C  0.77430833  0.59294048  0.75978710     0.37100
C491        C  0.76359017  0.47421452  0.64833876    -0.20400
C492        C  0.77204241  0.50960504  0.64112277    -0.20400
C493        C  0.73475955  0.52330430  0.85838080    -0.20400
C494        C  0.74283578  0.55869482  0.85065316    -0.20400
C495        C  0.70290061  0.41860037  0.75495122    -0.21400
C496        C  0.71054803  0.42338933  0.79193654    -0.21400
C497        C  0.78899459  0.60975625  0.70327451    -0.21400
C498        C  0.79745646  0.61456995  0.74008791    -0.21400
C499        C  0.72725903  0.44619639  0.69730547    -0.16800
C500        C  0.75180017  0.56589513  0.67028383    -0.16800
C501        C  0.77431890  0.58728358  0.79841326    -0.16800
C502        C  0.74762389  0.46709728  0.82571340    -0.16800
H503        H  0.76576334  0.45221543  0.62927432     0.16100
H504        H  0.78213852  0.51999805  0.61541992     0.16100
H505        H  0.72940966  0.51197332  0.88530367     0.16100
H506        H  0.74450496  0.58001343  0.87052363     0.16100
H507        H  0.68186955  0.40204972  0.74353560     0.14400
H508        H  0.69563364  0.41224108  0.81468690     0.14400
H509        H  0.80375435  0.62041183  0.68016519     0.14400
H510        H  0.81915617  0.63062252  0.75096118     0.14400
H511        H  0.73274678  0.51450837  0.71968716     0.27700
H512        H  0.76193013  0.51969338  0.77453502     0.27700
C513        C  0.11496321  0.61033653  0.11237071    -0.01000
C514        C  0.11007585  0.41181071  0.11698541    -0.01000
N515        N  0.22095627  0.99183453  0.84497272    -0.35100
N516        N  0.18611467  0.93077189  0.81057907    -0.55700
N517        N  0.14285094  0.98943492  0.77930938    -0.35100
N518        N  0.17470429  0.05032590  0.81638439    -0.55700
C519        C  0.23015386  0.96173919  0.86425414     0.28500
C520        C  0.22398077  0.01975884  0.86785129     0.28500
C521        C  0.12404908  0.95917383  0.77480471     0.28500
C522        C  0.11922194  0.01745055  0.77684186     0.28500
C523        C  0.22002305  0.91766271  0.81737581     0.37100
C524        C  0.17420621  0.91624437  0.77901957     0.37100
C525        C  0.20552429  0.06736206  0.82503599     0.37100
C526        C  0.16097331  0.06581597  0.78527469     0.37100
C527        C  0.23751107  0.96997971  0.90042034    -0.20400
C528        C  0.23343347  0.00683883  0.90282709    -0.20400
C529        C  0.08731166  0.96811109  0.77169825    -0.20400
C530        C  0.08437762  0.00522129  0.77242529    -0.20400
C531        C  0.22960405  0.89328148  0.79047502    -0.21400
C532        C  0.20029818  0.89219022  0.76615703    -0.21400
C533        C  0.21077408  0.09538578  0.80005056    -0.21400
C534        C  0.18244618  0.09423009  0.77451399    -0.21400
C535        C  0.24158121  0.93029507  0.84681819    -0.16800
C536        C  0.22902247  0.05482836  0.85390209    -0.16800
C537        C  0.13087316  0.05155517  0.76638451    -0.16800
C538        C  0.14147999  0.92815764  0.76117093    -0.16800
H539        H  0.24794106  0.95176328  0.92177747     0.16100
H540        H  0.23936209  0.02195486  0.92711554     0.16100
H541        H  0.06503573  0.95047200  0.76663315     0.16100
H542        H  0.06009065  0.02141052  0.76679147     0.16100
H543        H  0.25534740  0.87910526  0.78766354     0.14400
H544        H  0.19903739  0.87688269  0.74112192     0.14400
H545        H  0.23329641  0.11358485  0.79935269     0.14400
H546        H  0.17888292  0.11128724  0.75027033     0.14400
H547        H  0.21902826  0.99377876  0.81637575     0.27700
H548        H  0.17091257  0.99136418  0.77693928     0.27700
N549        N  0.49821599  0.76188541  0.19466306    -0.35100
N550        N  0.44640147  0.70358481  0.20222735    -0.55700
N551        N  0.50498069  0.67740262  0.24790282    -0.35100
N552        N  0.55879817  0.73263137  0.23674133    -0.55700
C553        C  0.47804532  0.75934343  0.16404606     0.28500
C554        C  0.52973086  0.77618883  0.18470533     0.28500
C555        C  0.48113071  0.65089292  0.24339776     0.28500
C556        C  0.53757355  0.66155721  0.25422738     0.28500
C557        C  0.42580012  0.73167532  0.19035864     0.37100
C558        C  0.42771151  0.68585923  0.22781779     0.37100
C559        C  0.56397335  0.76843914  0.23944709     0.37100
C560        C  0.56961566  0.71645734  0.26822522     0.37100
C561        C  0.49832441  0.77019285  0.13384964    -0.20400
C562        C  0.53115644  0.78111537  0.14719016    -0.20400
C563        C  0.49872591  0.61759061  0.24470223    -0.20400
C564        C  0.53501239  0.62437885  0.25045719    -0.20400
C565        C  0.39219436  0.73111523  0.20694355    -0.21400
C566        C  0.39365222  0.70194971  0.23155912    -0.21400
C567        C  0.57906438  0.77550240  0.27361455    -0.21400
C568        C  0.58308808  0.74216994  0.29186009    -0.21400
C569        C  0.44011132  0.75747991  0.16643458    -0.16800
C570        C  0.55208544  0.79203951  0.21050087    -0.16800
C571        C  0.56430338  0.67917833  0.27464999    -0.16800
C572        C  0.44406280  0.65731800  0.24826809    -0.16800
H573        H  0.49049270  0.77228711  0.10531090     0.16100
H574        H  0.55234286  0.79386370  0.13168329     0.16100
H575        H  0.48633000  0.59139259  0.24481055     0.16100
H576        H  0.55601324  0.60423150  0.25662328     0.16100
H577        H  0.36994372  0.75038920  0.20311423     0.14400
H578        H  0.37270696  0.69419981  0.25046073     0.14400
H579        H  0.58454975  0.80153785  0.28516838     0.14400
H580        H  0.59267725  0.73777501  0.31982920     0.14400
H581        H  0.48892523  0.75952775  0.22158501     0.27700
H582        H  0.49799281  0.70428386  0.25316532     0.27700
N583        N  0.49146074  0.30600727  0.70842940    -0.35100
N584        N  0.54653412  0.25761777  0.76103725    -0.55700
N585        N  0.49443260  0.17305307  0.77921355    -0.35100
N586        N  0.44169605  0.21890258  0.71054997    -0.55700
C587        C  0.52710948  0.30013160  0.70552384     0.28500
C588        C  0.47558894  0.27957194  0.68978359     0.28500
C589        C  0.52596942  0.18744214  0.76935300     0.28500
C590        C  0.47643697  0.16511903  0.74810407     0.28500
C591        C  0.56286356  0.28946848  0.75858398     0.37100
C592        C  0.56224804  0.23772518  0.78766817     0.37100
C593        C  0.42105856  0.24672105  0.69800183     0.37100
C594        C  0.42128320  0.19381462  0.72666176     0.37100
C595        C  0.53417216  0.27002486  0.68424838    -0.20400
C596        C  0.50103467  0.25668267  0.67432848    -0.20400
C597        C  0.52990466  0.18638322  0.73169410    -0.20400
C598        C  0.49867665  0.17136871  0.71814815    -0.20400
C599        C  0.58977979  0.29084858  0.78547455    -0.21400
C600        C  0.58925750  0.25755367  0.80436176    -0.21400
C601        C  0.38509246  0.23927809  0.70530639    -0.21400
C602        C  0.38529837  0.20570213  0.72415932    -0.21400
C603        C  0.55161309  0.31418967  0.73051305    -0.16800
C604        C  0.43816561  0.27838818  0.68499853    -0.16800
C605        C  0.43820433  0.16445018  0.74698862    -0.16800
C606        C  0.54955385  0.20286809  0.79497497    -0.16800
H607        H  0.56042319  0.25767332  0.67901718     0.16100
H608        H  0.49610676  0.23334482  0.65764502     0.16100
H609        H  0.55233820  0.19621866  0.71583881     0.16100
H610        H  0.49136928  0.16909563  0.68940309     0.16100
H611        H  0.60778811  0.31289596  0.79067482     0.14400
H612        H  0.60695528  0.24887682  0.82689402     0.14400
H613        H  0.36169599  0.25671065  0.69992342     0.14400
H614        H  0.36209843  0.19253247  0.73575478     0.14400
H615        H  0.47846915  0.32563173  0.72419822     0.27700
H616        H  0.48454793  0.17323040  0.80590317     0.27700
C617        C  0.60410273  0.11847574  0.91218581    -0.01000
N618        N  0.54216636  0.93283423  0.96675510    -0.04600
N619        N  0.55472299  0.90862356  0.94273653    -0.56700
N620        N  0.55757602  0.96150583  0.05535116    -0.04300
N621        N  0.58189871  0.95546214  0.08212579    -0.58900
N622        N  0.53519562  0.93416534  0.05366132    -0.03900
N623        N  0.54451444  0.90954942  0.07963320    -0.56700
N624        N  0.56516638  0.95968431  0.96917326    -0.03600
N625        N  0.59284643  0.95401254  0.94665905    -0.59200
C626        C  0.58642117  0.92221671  0.92958049     0.97600
C627        C  0.57408012  0.92279906  0.09770285     0.97300
N628        N  0.52578285  0.07755076  0.04427145    -0.04800
N629        N  0.53307866  0.10821564  0.06145514    -0.57300
N630        N  0.56086929  0.04785193  0.96744001    -0.02900
N631        N  0.59051059  0.06001225  0.95149872    -0.58600
N632        N  0.53348178  0.07086999  0.96184188    -0.04800
N633        N  0.54445310  0.09855555  0.94184509    -0.57600
N634        N  0.55258144  0.05364158  0.04966315    -0.02600
N635        N  0.57808307  0.06856075  0.07041603    -0.58700
Mn636      Mn  0.55883923  0.00507836  0.01090178     1.18400
C637        C  0.56602268  0.10281700  0.07829852     0.99600
C638        C  0.58014864  0.09160974  0.93473842     1.00300
N639        N  0.44465148  0.92942600  0.04366935    -0.04900
N640        N  0.43391064  0.90046460  0.06188928    -0.61200
N641        N  0.42258634  0.94994445  0.95842226    -0.03700
N642        N  0.39641617  0.93725003  0.93684804    -0.61800
N643        N  0.44974582  0.92599382  0.96108868    -0.04400
N644        N  0.44159871  0.89704898  0.94146480    -0.61400
N645        N  0.41726703  0.95310135  0.04075640    -0.03300
N646        N  0.38794857  0.93959206  0.05663267    -0.62100
Mn647      Mn  0.49347454  0.93053514  0.00619456     1.10700
C648        C  0.39824954  0.90606013  0.06954191     1.00900
C649        C  0.40858942  0.90440979  0.92504523     1.00900
N650        N  0.44376977  0.06538023  0.95146728    -0.04400
N651        N  0.43484996  0.08958747  0.92521616    -0.59700
N652        N  0.41385284  0.04544456  0.03765450    -0.03700
N653        N  0.38743478  0.05551186  0.06041639    -0.56500
N654        N  0.43815433  0.07107639  0.03665577    -0.05000
N655        N  0.42864658  0.09793511  0.05847239    -0.59300
N656        N  0.41978674  0.03936665  0.95178973    -0.04000
N657        N  0.39472405  0.04564683  0.92574999    -0.56500
Mn658      Mn  0.48486873  0.07078995  0.99818442     1.20200
Mn659      Mn  0.41828196  0.99747645  0.99750755     1.10100
Cl660      Cl  0.48882467  0.00081776  0.00336676    -0.84500
C661        C  0.40397858  0.07724009  0.90914680     0.97900
C662        C  0.39688351  0.08862571  0.07385669     0.97700
C663        C  0.59833633  0.90390424  0.12988416    -0.01000
C664        C  0.38721529  0.87758043  0.89873519    -0.01000
C665        C  0.37908586  0.09953701  0.88134483    -0.01000
C666        C  0.61631416  0.90156736  0.90605179    -0.01000
C667        C  0.37456955  0.87989098  0.09386344    -0.01000
N668        N  0.51745312  0.68098551  0.75238724    -0.35100
N669        N  0.57583284  0.72685896  0.77772164    -0.55700
N670        N  0.51590511  0.75976195  0.81467178    -0.35100
N671        N  0.45929939  0.71062142  0.79207593    -0.55700
C672        C  0.55002546  0.66614797  0.74511767     0.28500
C673        C  0.49396357  0.65381244  0.75540975     0.28500
C674        C  0.54602803  0.76351957  0.83516720     0.28500
C675        C  0.48807182  0.75859703  0.83781932     0.28500
C676        C  0.58727776  0.71868826  0.74401641     0.37100
C677        C  0.58880116  0.75916675  0.78668460     0.37100
C678        C  0.44048609  0.69007206  0.76872861     0.37100
C679        C  0.43819959  0.73899507  0.80225428     0.37100
C680        C  0.54800319  0.62886865  0.74518360    -0.20400
C681        C  0.51232394  0.62101138  0.75165085    -0.20400
C682        C  0.53772497  0.76312791  0.87215161    -0.20400
C683        C  0.50061906  0.75928300  0.87394037    -0.20400
C684        C  0.60874774  0.74633384  0.73090660    -0.21400
C685        C  0.61016718  0.77206045  0.75858563    -0.21400
C686        C  0.40556681  0.70419580  0.76501530    -0.21400
C687        C  0.40375178  0.73465576  0.78705576    -0.21400
C688        C  0.57651742  0.68630091  0.72741423    -0.16800
C689        C  0.45650718  0.65992962  0.75069667    -0.16800
C690        C  0.45282437  0.76653802  0.82505877    -0.16800
C691        C  0.57793736  0.77562357  0.81947458    -0.16800
H692        H  0.56908915  0.60981083  0.73737616     0.16100
H693        H  0.50108147  0.59441754  0.75067860     0.16100
H694        H  0.55592686  0.76822066  0.89494350     0.16100
H695        H  0.48473166  0.76149331  0.89847959     0.16100
H696        H  0.62117365  0.74835898  0.70423772     0.14400
H697        H  0.62361735  0.79770231  0.75737890     0.14400
H698        H  0.38359711  0.69326107  0.74899569     0.14400
H699        H  0.37906102  0.74946810  0.79273030     0.14400
H700        H  0.51070077  0.70837976  0.74896466     0.27700
H701        H  0.51370010  0.76322429  0.78615979     0.27700
C702        C  0.37302759  0.11310656  0.10065270    -0.01000
C703        C  0.58867550  0.13366561  0.09828397    -0.01000
N704        N  0.02881532  0.67497618  0.22864025    -0.35100
N705        N  0.08795404  0.73196093  0.28308392    -0.55700
N706        N  0.02778258  0.75405098  0.32950822    -0.35100
N707        N  0.97196192  0.70926873  0.30209648    -0.55700
C708        C  0.06301462  0.67752336  0.24070742     0.28500
C709        C  0.00904038  0.66258869  0.25642681     0.28500
C710        C  0.05809104  0.75977248  0.34957261     0.28500
C711        C  0.99939682  0.75715096  0.35238485     0.28500
C712        C  0.09968138  0.72967632  0.24818683     0.37100
C713        C  0.10052418  0.76199403  0.29802932     0.37100
C714        C  0.95380741  0.69147952  0.27588506     0.37100
C715        C  0.95085355  0.73709568  0.31333078     0.37100
C716        C  0.06541435  0.66328947  0.27647761    -0.20400
C717        C  0.03063560  0.65493301  0.28687559    -0.20400
C718        C  0.04858825  0.76433758  0.38616600    -0.20400
C719        C  0.01137210  0.76342976  0.38768556    -0.20400
C720        C  0.12072759  0.75932432  0.24040640    -0.21400
C721        C  0.12166626  0.77973393  0.27241181    -0.21400
C722        C  0.91955154  0.70728825  0.27116588    -0.21400
C723        C  0.91795656  0.73680080  0.29442484    -0.21400
C724        C  0.08680641  0.70236601  0.22450719    -0.16800
C725        C  0.97137447  0.66519922  0.25384161    -0.16800
C726        C  0.96347412  0.76192578  0.33973105    -0.16800
C727        C  0.09007340  0.77305411  0.33356123    -0.16800
H728        H  0.08905524  0.66274931  0.29443238     0.16100
H729        H  0.02202730  0.64626372  0.31384089     0.16100
H730        H  0.06615093  0.77133553  0.40881205     0.16100
H731        H  0.99487445  0.76912566  0.41135407     0.16100
H732        H  0.13285877  0.76624836  0.21441891     0.14400
H733        H  0.13483676  0.80530253  0.27579507     0.14400
H734        H  0.89869459  0.69970115  0.25179585     0.14400
H735        H  0.89560932  0.75603515  0.29624236     0.14400
H736        H  0.01723635  0.68601272  0.20557393     0.27700
H737        H  0.02571028  0.75393734  0.30086400     0.27700
N738        N  0.73459517  0.02927992  0.17841876    -0.35100
N739        N  0.76355498  0.08785736  0.21388604    -0.55700
N740        N  0.82177185  0.03320627  0.22996577    -0.35100
N741        N  0.79444457  0.97409016  0.19039451    -0.55700
C742        C  0.71479260  0.05807155  0.16654747     0.28500
C743        C  0.73369634  0.00503421  0.15150747     0.28500
C744        C  0.83577112  0.06622834  0.23241006     0.28500
C745        C  0.84950879  0.00940373  0.22562482     0.28500
C746        C  0.72834898  0.09798391  0.21553451     0.37100
C747        C  0.78054294  0.10207656  0.24265971     0.37100
C748        C  0.76404703  0.95547277  0.18437264     0.37100
C749        C  0.81357516  0.95704303  0.21771043     0.37100
C750        C  0.70253806  0.05298317  0.13118301    -0.20400
C751        C  0.71493512  0.01952678  0.12120356    -0.20400
C752        C  0.87306729  0.06376104  0.22793646    -0.20400
C753        C  0.88176450  0.02761825  0.22289276    -0.20400
C754        C  0.72272318  0.12029603  0.24514576    -0.21400
C755        C  0.75620491  0.12280199  0.26269800    -0.21400
C756        C  0.76383934  0.92524276  0.20713544    -0.21400
C757        C  0.79506855  0.92648350  0.22882807    -0.21400
C758        C  0.70295608  0.08525324  0.19000352    -0.16800
C759        C  0.73634645  0.96833590  0.16015382    -0.16800
C760        C  0.84532760  0.97236723  0.23333754    -0.16800
C761        C  0.81721122  0.09404970  0.25070792    -0.16800
H762        H  0.68356601  0.06996214  0.11603070     0.16100
H763        H  0.70699785  0.00583829  0.09646736     0.16100
H764        H  0.89219589  0.08514160  0.23180449     0.16100
H765        H  0.90879551  0.01573057  0.22192639     0.16100
H766        H  0.69729717  0.13229582  0.25381827     0.14400
H767        H  0.76170811  0.13727460  0.28766764     0.14400
H768        H  0.74251040  0.90578351  0.20945796     0.14400
H769        H  0.80168039  0.90820112  0.25146618     0.14400
H770        H  0.74255404  0.02399987  0.20563437     0.27700
H771        H  0.79549531  0.02652768  0.23742431     0.27700
N772        N  0.71892334  0.16068369  0.49302395    -0.35100
N773        N  0.66853634  0.18284911  0.43497253    -0.55700
N774        N  0.63951812  0.22497828  0.49584610    -0.35100
N775        N  0.68814950  0.20205119  0.55316971    -0.55700
C776        C  0.71912578  0.13499616  0.46740888     0.28500
C777        C  0.72879472  0.14482812  0.52509455     0.28500
C778        C  0.61454764  0.22648812  0.46862432     0.28500
C779        C  0.62344545  0.23705741  0.52640079     0.28500
C780        C  0.69798538  0.17164900  0.41604885     0.37100
C781        C  0.65393864  0.21230675  0.41746184     0.37100
C782        C  0.72257339  0.19591554  0.56474662     0.37100
C783        C  0.67746528  0.23452362  0.56565151     0.37100
C784        C  0.72769042  0.10175041  0.48389931    -0.20400
C785        C  0.73419131  0.10812317  0.52057121    -0.20400
C786        C  0.58129062  0.23726351  0.48255184    -0.20400
C787        C  0.58695346  0.24416161  0.51917627    -0.20400
C788        C  0.70098125  0.19303483  0.38461551    -0.21400
C789        C  0.67318758  0.21913747  0.38574431    -0.21400
C790        C  0.73382570  0.22451090  0.58595127    -0.21400
C791        C  0.70479692  0.24894713  0.58691368    -0.21400
C792        C  0.72287511  0.14457202  0.43025308    -0.16800
C793        C  0.74270927  0.16508103  0.55380251    -0.16800
C794        C  0.64364150  0.25064423  0.55589220    -0.16800
C795        C  0.62514358  0.23338740  0.43245583    -0.16800
H796        H  0.73127863  0.07597078  0.47096978     0.16100
H797        H  0.74472058  0.08876200  0.54081919     0.16100
H798        H  0.55697627  0.24436986  0.46685330     0.16100
H799        H  0.56736881  0.25666899  0.53706804     0.16100
H800        H  0.72185317  0.19113699  0.36408415     0.14400
H801        H  0.66841061  0.24111479  0.36621686     0.14400
H802        H  0.76030780  0.22823785  0.59819490     0.14400
H803        H  0.70441288  0.27484343  0.60026346     0.14400
H804        H  0.71829178  0.18849858  0.48775320     0.27700
H805        H  0.66742201  0.22327943  0.49188383     0.27700
N806        N  0.25497015  0.88509610  0.49076522    -0.35100
N807        N  0.29011851  0.81333656  0.55088008    -0.55700
N808        N  0.31892535  0.77099917  0.49373932    -0.35100
N809        N  0.29655040  0.81922079  0.43352294    -0.55700
C810        C  0.27570404  0.88265462  0.52148141     0.28500
C811        C  0.27798417  0.88563247  0.46232816     0.28500
C812        C  0.31095327  0.74830587  0.52163860     0.28500
C813        C  0.31574861  0.75168134  0.46300988     0.28500
C814        C  0.27850890  0.84076715  0.57173602     0.37100
C815        C  0.30709632  0.78839194  0.57278422     0.37100
C816        C  0.28682703  0.84763225  0.41167110     0.37100
C817        C  0.31743974  0.79636721  0.41410791     0.37100
C818        C  0.31210791  0.88319077  0.51279569    -0.20400
C819        C  0.31359040  0.88527247  0.47519068    -0.20400
C820        C  0.30118868  0.71497918  0.50852167    -0.20400
C821        C  0.30398687  0.71734805  0.47112085    -0.20400
C822        C  0.28759561  0.83350663  0.60814054    -0.21400
C823        C  0.30695303  0.80057613  0.60870660    -0.21400
C824        C  0.30200946  0.84318972  0.37731273    -0.21400
C825        C  0.32182909  0.81054044  0.37898022    -0.21400
C826        C  0.26240679  0.87245313  0.55581677    -0.16800
C827        C  0.26769766  0.87799183  0.42598069    -0.16800
C828        C  0.32931027  0.76249321  0.42902469    -0.16800
C829        C  0.31978532  0.75504049  0.55831042    -0.16800
H830        H  0.33497545  0.87962085  0.53153353     0.16100
H831        H  0.33790783  0.88349344  0.45893658     0.16100
H832        H  0.29477812  0.69110582  0.52448328     0.16100
H833        H  0.29899487  0.69625561  0.45184368     0.16100
H834        H  0.28268112  0.85084967  0.63126490     0.14400
H835        H  0.31912276  0.78756212  0.63273793     0.14400
H836        H  0.30007657  0.86187402  0.35418588     0.14400
H837        H  0.33706885  0.79852812  0.35693276     0.14400
H838        H  0.22685695  0.88166954  0.48921151     0.27700
H839        H  0.33027829  0.79647846  0.49581150     0.27700
C840        C  0.87925658  0.12465380  0.39464094    -0.01000
N841        N  0.95162367  0.05129220  0.56399540    -0.04600
N842        N  0.94544944  0.07773771  0.58767554    -0.56700
N843        N  0.92579940  0.96640621  0.53993545    -0.04300
N844        N  0.89911694  0.94500936  0.55044245    -0.58900
N845        N  0.95158230  0.96624332  0.56554239    -0.03900
N846        N  0.94247887  0.94436677  0.59324194    -0.56700
N847        N  0.92592718  0.05150443  0.53839521    -0.03600
N848        N  0.90236812  0.07834521  0.54469034    -0.59200
C849        C  0.91456689  0.09522707  0.57547882     0.97600
C850        C  0.90989871  0.93025417  0.58349687     0.97300
N851        N  0.95101148  0.96780890  0.42166034    -0.04800
N852        N  0.94424561  0.94476278  0.39473590    -0.57300
N853        N  0.92154646  0.05138680  0.45020584    -0.02900
N854        N  0.89499785  0.07586805  0.44500960    -0.58600
N855        N  0.94563782  0.05350278  0.42378741    -0.04800
N856        N  0.93505058  0.07961853  0.40002871    -0.57600
N857        N  0.92502033  0.96634207  0.44641269    -0.02600
N858        N  0.90022192  0.94256328  0.43546934    -0.58700
Mn859      Mn  0.92425901  0.00838911  0.49377840     1.18400
C860        C  0.91245195  0.92838008  0.40301163     0.99600
C861        C  0.90309047  0.09346864  0.41335587     1.00300
N862        N  0.04290266  0.96781044  0.56413730    -0.04900
N863        N  0.05555405  0.94631469  0.59117142    -0.61200
N864        N  0.06455980  0.05251553  0.54197056    -0.03700
N865        N  0.09128404  0.07317853  0.55410000    -0.61800
N866        N  0.03955786  0.05009502  0.56749011    -0.04400
N867        N  0.04900645  0.06903109  0.59670796    -0.61400
N868        N  0.06736306  0.96977580  0.53799341    -0.03300
N869        N  0.09623357  0.94929137  0.54677669    -0.62100
Mn870      Mn  0.99605881  0.00843299  0.56531533     1.10700
C871        C  0.08887031  0.93442976  0.58007166     1.00900
C872        C  0.08109213  0.08431488  0.58820739     1.00900
N873        N  0.03699794  0.05526645  0.42254971    -0.04400
N874        N  0.04711986  0.07659382  0.39477307    -0.59700
N875        N  0.06687498  0.97289519  0.44846249    -0.03700
N876        N  0.09561089  0.95280658  0.43945791    -0.56500
N877        N  0.04209853  0.97255708  0.42190225    -0.05000
N878        N  0.05452712  0.95244353  0.39454466    -0.59300
N879        N  0.06199214  0.05538071  0.44900028    -0.04000
N880        N  0.08881527  0.07662338  0.43924448    -0.56500
Mn881      Mn  0.99361363  0.01229828  0.42213287     1.20200
Mn882      Mn  0.06478339  0.01294363  0.49427682     1.10100
Cl883      Cl  0.99471887  0.01023384  0.49376415    -0.84500
C884        C  0.07934080  0.09079356  0.40566394     0.97900
C885        C  0.08835034  0.94026750  0.40544060     0.97700
C886        C  0.89013581  0.90337124  0.37480075    -0.01000
C887        C  0.11435861  0.91605559  0.38161611    -0.01000
C888        C  0.11650516  0.91081476  0.60350795    -0.01000
C889        C  0.89106859  0.12088351  0.60067301    -0.01000
C890        C  0.88576928  0.90675786  0.61022294    -0.01000
N891        N  0.74173309  0.83722592  0.48499154    -0.35100
N892        N  0.71089146  0.79746312  0.54607529    -0.55700
N893        N  0.64444110  0.75109071  0.48984929    -0.35100
N894        N  0.69489333  0.81533417  0.42630143    -0.55700
C895        C  0.75485211  0.85158034  0.51603767     0.28500
C896        C  0.74406474  0.86277797  0.45831155     0.28500
C897        C  0.64672484  0.76970386  0.52090400     0.28500
C898        C  0.64217706  0.77522858  0.46195282     0.28500
C899        C  0.74464275  0.80189856  0.55909019     0.37100
C900        C  0.69704691  0.76853199  0.56333420     0.37100
C901        C  0.72369767  0.82659706  0.40721931     0.37100
C902        C  0.68035361  0.78677617  0.40940048     0.37100
C903        C  0.76351911  0.88736999  0.50980558    -0.20400
C904        C  0.75664978  0.89449461  0.47315593    -0.20400
C905        C  0.64178553  0.80631682  0.51342145    -0.20400
C906        C  0.63845791  0.80983813  0.47575126    -0.20400
C907        C  0.75283385  0.77548897  0.58555609    -0.21400
C908        C  0.72230751  0.75439650  0.58852565    -0.21400
C909        C  0.72732766  0.80558662  0.37623391    -0.21400
C910        C  0.69991365  0.77999941  0.37778906    -0.21400
C911        C  0.76638416  0.83032721  0.54654912    -0.16800
C912        C  0.74674916  0.85375393  0.42099746    -0.16800
C913        C  0.65321977  0.76541043  0.42654558    -0.16800
C914        C  0.66380415  0.75364367  0.55178900    -0.16800
H915        H  0.77648586  0.90527958  0.52886723     0.16100
H916        H  0.76397421  0.91871530  0.45824498     0.16100
H917        H  0.64420048  0.82817477  0.53260729     0.16100
H918        H  0.63728905  0.83505162  0.46031296     0.16100
H919        H  0.77814240  0.77138927  0.60055167     0.14400
H920        H  0.71962880  0.73074572  0.60602160     0.14400
H921        H  0.74830764  0.80733083  0.35583448     0.14400
H922        H  0.69586214  0.75821065  0.35883216     0.14400
H923        H  0.73748248  0.80974519  0.48111113     0.27700
H924        H  0.65101458  0.72363730  0.48780957     0.27700
C925        C  0.10486885  0.11535021  0.38154020    -0.01000
C926        C  0.10487249  0.10652620  0.61610614    -0.01000
N927        N  0.98645205  0.69817495  0.78528460    -0.35100
N928        N  0.93673292  0.71700657  0.70800108    -0.55700
N929        N  0.99720244  0.78422828  0.66788713    -0.35100
N930        N  0.05475631  0.74768704  0.73187172    -0.55700
C931        C  0.97022619  0.67740337  0.76051323     0.28500
C932        C  0.02146247  0.69987107  0.77649938     0.28500
C933        C  0.97189472  0.75996497  0.66078473     0.28500
C934        C  0.02933948  0.76729766  0.66435843     0.28500
C935        C  0.91591047  0.69965824  0.73200751     0.37100
C936        C  0.91724055  0.74290585  0.69020665     0.37100
C937        C  0.06127207  0.74955532  0.76818271     0.37100
C938        C  0.06870252  0.77624880  0.71463152     0.37100
C939        C  0.99449296  0.66603268  0.73441554    -0.20400
C940        C  0.02723264  0.68032965  0.74457810    -0.20400
C941        C  0.98810316  0.72686135  0.65263358    -0.20400
C942        C  0.02504566  0.73154815  0.65535803    -0.20400
C943        C  0.88072035  0.71378413  0.72857811    -0.21400
C944        C  0.88178476  0.74203141  0.70237495    -0.21400
C945        C  0.07969731  0.78111175  0.77492183    -0.21400
C946        C  0.08461702  0.79806343  0.74074552    -0.21400
C947        C  0.93258064  0.67594721  0.75867866    -0.16800
C948        C  0.04530330  0.72444435  0.79284320    -0.16800
C949        C  0.06077133  0.78297454  0.67680461    -0.16800
C950        C  0.93508814  0.76747372  0.66668973    -0.16800
H951        H  0.98861938  0.65134311  0.70966823     0.16100
H952        H  0.05162447  0.67911959  0.72852994     0.16100
H953        H  0.97466110  0.70185458  0.64693664     0.16100
H954        H  0.04610139  0.71096323  0.65285488     0.16100
H955        H  0.85735846  0.70599229  0.74424360     0.14400
H956        H  0.85953315  0.75996542  0.69400382     0.14400
H957        H  0.08608979  0.79242974  0.80134789     0.14400
H958        H  0.09558952  0.82459740  0.73633164     0.14400
H959        H  0.97258590  0.71382351  0.80420348     0.27700
H960        H  0.99294448  0.81050637  0.67728295     0.27700
N961        N  0.68438301  0.01231742  0.76622287    -0.35100
N962        N  0.73381960  0.07069247  0.73887131    -0.55700
N963        N  0.77312850  0.01581241  0.67272395    -0.35100
N964        N  0.70038819  0.95903622  0.71134568    -0.55700
C965        C  0.67254357  0.04640806  0.77072742     0.28500
C966        C  0.65515160  0.99307135  0.75721218     0.28500
C967        C  0.75776632  0.04854498  0.67536255     0.28500
C968        C  0.74638137  0.99318469  0.66561052     0.28500
C969        C  0.72508747  0.08377753  0.77149997     0.37100
C970        C  0.76312070  0.08724826  0.72572728     0.37100
C971        C  0.68207149  0.93866691  0.73500637     0.37100
C972        C  0.72607248  0.93901493  0.69494955     0.37100
C973        C  0.63564175  0.04941500  0.76367295    -0.20400
C974        C  0.62469306  0.01551060  0.75402430    -0.20400
C975        C  0.72100469  0.04784707  0.66732180    -0.20400
C976        C  0.71372862  0.01229769  0.66064261    -0.20400
C977        C  0.74989685  0.10988625  0.78080685    -0.21400
C978        C  0.77407599  0.11237494  0.75133846    -0.21400
C979        C  0.69535789  0.90326018  0.73281023    -0.21400
C980        C  0.72402787  0.90367728  0.70771406    -0.21400
C981        C  0.69328102  0.07193331  0.78878122    -0.16800
C982        C  0.65620428  0.95521187  0.75864243    -0.16800
C983        C  0.75132189  0.95606116  0.67168068    -0.16800
C984        C  0.77697622  0.07642333  0.69111572    -0.16800
H985        H  0.61845280  0.07324936  0.76651273     0.16100
H986        H  0.59742887  0.00833009  0.74640508     0.16100
H987        H  0.70150808  0.07004955  0.66856625     0.16100
H988        H  0.68719851  0.00140173  0.65549147     0.16100
H989        H  0.75009302  0.12598981  0.80532739     0.14400
H990        H  0.79589473  0.13119904  0.74898561     0.14400
H991        H  0.68638051  0.88004587  0.74833287     0.14400
H992        H  0.74136855  0.88106242  0.70034718     0.14400
H993        H  0.71028917  0.00198837  0.77292842     0.27700
H994        H  0.79986808  0.00925006  0.68030776     0.27700
N995        N  0.81097092  0.74828697  0.03954832    -0.35100
N996        N  0.75028225  0.75563142  0.08633288    -0.55700
N997        N  0.73350733  0.81284423  0.03768205    -0.35100
N998        N  0.79631054  0.80767427  0.98856850    -0.55700
C999        C  0.82141705  0.73100688  0.07068867     0.28500
C1000       C  0.84113433  0.75419501  0.02014754     0.28500
C1001       C  0.71464462  0.81949936  0.06817163     0.28500
C1002       C  0.73994258  0.84509568  0.02184149     0.28500
C1003       C  0.76178315  0.72290758  0.09803795     0.37100
C1004       C  0.71550622  0.76008672  0.09595838     0.37100
C1005       C  0.81337472  0.78350841  0.96721799     0.37100
C1006       C  0.77037958  0.82468682  0.96800632     0.37100
C1007       C  0.85893572  0.72776416  0.07202112    -0.20400
C1008       C  0.87147201  0.74201270  0.03967842    -0.20400
C1009       C  0.71096261  0.85623995  0.07291001    -0.20400
C1010       C  0.72658319  0.87263716  0.04320904    -0.20400
C1011       C  0.73410659  0.70591403  0.11654935    -0.21400
C1012       C  0.70439316  0.72991231  0.11535782    -0.21400
C1013       C  0.79922008  0.78598077  0.93176693    -0.21400
C1014       C  0.77172824  0.81248489  0.93223876    -0.21400
C1015       C  0.79757264  0.71067086  0.09219041    -0.16800
C1016       C  0.83926219  0.75843273  0.98208123    -0.16800
C1017       C  0.74454082  0.84802346  0.98411308    -0.16800
C1018       C  0.69657864  0.79271713  0.08807766    -0.16800
H1019       H  0.87506707  0.71328439  0.09237203     0.16100
H1020       H  0.89905010  0.74018029  0.02998453     0.16100
H1021       H  0.69695183  0.86940974  0.09466088     0.16100
H1022       H  0.72498179  0.90104705  0.03589542     0.16100
H1023       H  0.73530570  0.67947567  0.12963787     0.14400
H1024       H  0.67809749  0.72578012  0.12734822     0.14400
H1025       H  0.80681798  0.76956233  0.90866291     0.14400
H1026       H  0.75377580  0.82039728  0.90963744     0.14400
H1027       H  0.78461486  0.74994874  0.02895066     0.27700
H1028       H  0.73629224  0.78779205  0.02521826     0.27700
C1029       C  0.93155579  0.85531146  0.61226266     0.25100
C1030       C  0.91076517  0.87967521  0.63380883    -0.23000
C1031       C  0.90342328  0.86663209  0.67026205     0.20000
C1032       C  0.90971059  0.83015711  0.68073203     0.25000
C1033       C  0.92272209  0.80503284  0.65549867    -0.23000
C1034       C  0.93405731  0.81853521  0.62125069     0.19900
F1035       F  0.94840852  0.79575281  0.59612940    -0.12900
F1036       F  0.94404571  0.86545800  0.57884911    -0.15300
F1037       F  0.90372560  0.81977608  0.71601895    -0.15300
F1038       F  0.88956646  0.88761159  0.69665112    -0.12900
C1039       C  0.85356414  0.94090905  0.66455928     0.25100
C1040       C  0.85703710  0.93374260  0.62696634    -0.23000
C1041       C  0.82586317  0.94270741  0.60492945     0.20000
C1042       C  0.79140891  0.94332109  0.62033068     0.25000
C1043       C  0.78690190  0.94150124  0.65853723    -0.23000
C1044       C  0.81876966  0.94247226  0.68072865     0.19900
F1045       F  0.81617817  0.94881686  0.71722614    -0.12900
F1046       F  0.88317451  0.95050667  0.68434308    -0.15300
F1047       F  0.76196402  0.94707559  0.59766583    -0.15300
F1048       F  0.82779816  0.94373053  0.56774368    -0.12900
C1049       C  0.83357846  0.86205216  0.61619366     0.25100
C1050       C  0.86025571  0.87810071  0.59307832    -0.23000
C1051       C  0.86027463  0.86800294  0.55607638     0.20000
C1052       C  0.83180568  0.84780778  0.54221323     0.25000
C1053       C  0.80167319  0.83922280  0.56400518    -0.23000
C1054       C  0.80386186  0.84496617  0.60153324     0.19900
F1055       F  0.77563441  0.83765543  0.62381216    -0.12900
F1056       F  0.83279261  0.86756547  0.65284040    -0.15300
F1057       F  0.83268514  0.83849474  0.50667333    -0.15300
F1058       F  0.88720114  0.87732105  0.53307184    -0.12900
C1059       C  0.85123094  0.07036103  0.62032267     0.25100
C1060       C  0.87734954  0.09495854  0.63245115    -0.23000
C1061       C  0.87628037  0.10161656  0.67116677     0.20000
C1062       C  0.84501941  0.09350144  0.69167413     0.25000
C1063       C  0.81333896  0.08252448  0.67346604    -0.23000
C1064       C  0.81767412  0.07132107  0.63659962     0.19900
F1065       F  0.78905652  0.06283970  0.61467536    -0.12900
F1066       F  0.85238387  0.05593465  0.58640459    -0.15300
F1067       F  0.84653273  0.09572914  0.72874488    -0.15300
F1068       F  0.90496883  0.11314951  0.69056680    -0.12900
C1069       C  0.05563119  0.82987538  0.62419405     0.25100
C1070       C  0.07550277  0.81309872  0.65408907    -0.23000
C1071       C  0.11153421  0.82279731  0.65925680     0.20000
C1072       C  0.12522778  0.85186171  0.63998518     0.25000
C1073       C  0.10300528  0.87303420  0.61512227    -0.23000
C1074       C  0.06919061  0.85946416  0.60517044     0.19900
F1075       F  0.04917753  0.87406755  0.57691683    -0.12900
F1076       F  0.02317674  0.81799187  0.61220412    -0.15300
F1077       F  0.16005039  0.86081236  0.64735127    -0.15300
F1078       F  0.13413999  0.80367977  0.68239356    -0.12900
C1079       C  0.81792080  0.90863194  0.37070378     0.25100
C1080       C  0.85067489  0.89718776  0.38962307    -0.23000
C1081       C  0.84641660  0.87307242  0.41973227     0.20000
C1082       C  0.81407334  0.85406842  0.42353267     0.25000
C1083       C  0.78210533  0.86463148  0.40440151    -0.23000
C1084       C  0.78421821  0.89314458  0.37885764     0.19900
F1085       F  0.75357331  0.90629926  0.36194745    -0.12900
F1086       F  0.81742069  0.93561342  0.34514469    -0.15300
F1087       F  0.81389677  0.82383964  0.44493892    -0.15300
F1088       F  0.87560456  0.86240832  0.44064158    -0.12900
C1089       C  0.21236018  0.87395324  0.38315822     0.25100
C1090       C  0.23076135  0.89131589  0.41158203    -0.23000
C1091       C  0.21250500  0.92135932  0.42745149     0.20000
C1092       C  0.17560453  0.92968028  0.41982493     0.25000
C1093       C  0.15573953  0.90967973  0.39387411    -0.23000
C1094       C  0.17688848  0.88426058  0.37327649     0.19900
F1095       F  0.16261838  0.86842921  0.34306483    -0.12900
F1096       F  0.22806573  0.84660123  0.36437477    -0.15300
F1097       F  0.16174921  0.95998429  0.43489055    -0.15300
F1098       F  0.23058747  0.94366117  0.45016323    -0.12900
C1099       C  0.21367514  0.92005822  0.56630754     0.25100
C1100       C  0.22421491  0.88330944  0.56379770    -0.23000
C1101       C  0.19677380  0.85801606  0.56086696     0.20000
C1102       C  0.16080021  0.86824506  0.56706084     0.25000
C1103       C  0.15174658  0.90329935  0.58047644    -0.23000
C1104       C  0.17714055  0.93006733  0.57243773     0.19900
F1105       F  0.16758560  0.96563978  0.57405242    -0.12900
F1106       F  0.23883813  0.94610426  0.56365854    -0.15300
F1107       F  0.13507543  0.84359236  0.55975627    -0.15300
F1108       F  0.20449008  0.82372083  0.55032191    -0.12900
C1109       C  0.78402789  0.16995011  0.41585919     0.25100
C1110       C  0.76140080  0.14010724  0.41711349    -0.23000
C1111       C  0.77829591  0.10578739  0.41546168     0.20000
C1112       C  0.81635625  0.10143040  0.41554714     0.25000
C1113       C  0.83994624  0.13128914  0.41148533    -0.23000
C1114       C  0.82157030  0.16595353  0.41071313     0.19900
F1115       F  0.83827178  0.19712533  0.40296587    -0.12900
F1116       F  0.76987458  0.20379824  0.41976179    -0.15300
F1117       F  0.82948120  0.06705804  0.41733736    -0.15300
F1118       F  0.75785190  0.07588401  0.41341731    -0.12900
C1119       C  0.80747294  0.14881960  0.53756230     0.25100
C1120       C  0.78142418  0.15778114  0.56441837    -0.23000
C1121       C  0.79279719  0.15925880  0.60092584     0.20000
C1122       C  0.82897854  0.15246084  0.61021645     0.25000
C1123       C  0.85362897  0.13631824  0.58491267    -0.23000
C1124       C  0.84259300  0.13703631  0.54759865     0.19900
F1125       F  0.86639203  0.13136299  0.52018412    -0.12900
F1126       F  0.79925243  0.15206766  0.50120037    -0.15300
F1127       F  0.83955983  0.16054683  0.64485763    -0.15300
F1128       F  0.76882680  0.16633707  0.62800960    -0.12900
C1129       C  0.88024174  0.90097607  0.30264092     0.25100
C1130       C  0.88727077  0.92137876  0.33512996    -0.23000
C1131       C  0.88711681  0.95931209  0.32998115     0.20000
C1132       C  0.87824853  0.97548849  0.29596773     0.25000
C1133       C  0.86622952  0.95512257  0.26568790    -0.23000
C1134       C  0.87128761  0.91767880  0.26873942     0.19900
F1135       F  0.86690428  0.89673626  0.23878361    -0.12900
F1136       F  0.88018621  0.86450823  0.30273636    -0.15300
F1137       F  0.88111548  0.01164629  0.29390643    -0.15300
F1138       F  0.89201255  0.98190617  0.35839367    -0.12900
C1139       C  0.85596658  0.14489066  0.32991532     0.25100
C1140       C  0.86786705  0.11622790  0.35449455    -0.23000
C1141       C  0.85952241  0.08070980  0.34417836     0.20000
C1142       C  0.83868940  0.07494104  0.31282452     0.25000
C1143       C  0.83228397  0.10279986  0.28692794    -0.23000
C1144       C  0.84108230  0.13784249  0.29557702     0.19900
F1145       F  0.83349296  0.16548414  0.27155791    -0.12900
F1146       F  0.85777899  0.18012180  0.33891467    -0.15300
F1147       F  0.82323432  0.04236341  0.30834178    -0.15300
F1148       F  0.86905220  0.05150382  0.36527754    -0.12900
C1149       C  0.07633852  0.83757641  0.33429062     0.25100
C1150       C  0.09906236  0.80921677  0.34712385    -0.23000
C1151       C  0.11712308  0.81324829  0.38109792     0.20000
C1152       C  0.11544495  0.84665016  0.39902059     0.25000
C1153       C  0.09777261  0.87706640  0.38157242    -0.23000
C1154       C  0.07141051  0.86807147  0.35557343     0.19900
F1155       F  0.03879032  0.88538621  0.35484057    -0.12900
F1156       F  0.05557763  0.83353906  0.30362844    -0.15300
F1157       F  0.13369205  0.85011173  0.43137312    -0.15300
F1158       F  0.13553520  0.78486962  0.39707407    -0.12900
C1159       C  0.90807797  0.79799601  0.36101381     0.25100
C1160       C  0.94405581  0.79671509  0.34993237    -0.23000
C1161       C  0.96229639  0.82976502  0.34792489     0.20000
C1162       C  0.94596341  0.86273875  0.35802177     0.25000
C1163       C  0.90955156  0.86488642  0.36939928    -0.23000
C1164       C  0.89043424  0.83124482  0.36749455     0.19900
F1165       F  0.85387108  0.83027070  0.36417098    -0.12900
F1166       F  0.88892481  0.76721162  0.36347303    -0.15300
F1167       F  0.96491142  0.89311259  0.35220815    -0.15300
F1168       F  0.99582592  0.83057074  0.33383070    -0.12900
C1169       C  0.63161782  0.14755957  0.15274766     0.25100
C1170       C  0.60889600  0.12192380  0.13499474    -0.23000
C1171       C  0.60925343  0.08685462  0.15069184     0.20000
C1172       C  0.63705615  0.07624938  0.17560192     0.25000
C1173       C  0.66542478  0.09999783  0.18407074    -0.23000
C1174       C  0.66030222  0.13645793  0.17559671     0.19900
F1175       F  0.68546255  0.16088153  0.18522707    -0.12900
F1176       F  0.62840704  0.18351400  0.14554314    -0.15300
F1177       F  0.63908419  0.04135980  0.18750694    -0.15300
F1178       F  0.58379562  0.06255435  0.14191599    -0.12900
C1179       C  0.66234646  0.91055486  0.85324077     0.25100
C1180       C  0.62982106  0.92235150  0.87104983    -0.23000
C1181       C  0.60562579  0.94400908  0.84930680     0.20000
C1182       C  0.61186862  0.95007067  0.81166661     0.25000
C1183       C  0.64509487  0.93969425  0.79521506    -0.23000
C1184       C  0.67076471  0.92149427  0.81769950     0.19900
F1185       F  0.70494516  0.91458069  0.80602349    -0.12900
F1186       F  0.68668570  0.88722668  0.86925934    -0.15300
F1187       F  0.58448449  0.96534633  0.79133633    -0.15300
F1188       F  0.57431694  0.95732370  0.86344137    -0.12900
C1189       C  0.68018544  0.91436035  0.93469405     0.25100
C1190       C  0.64762037  0.89463361  0.93430759    -0.23000
C1191       C  0.64574020  0.86514181  0.95895544     0.20000
C1192       C  0.67775340  0.84833154  0.97181722     0.25000
C1193       C  0.71188669  0.86356848  0.96474989    -0.23000
C1194       C  0.71241966  0.89814246  0.94859770     0.19900
F1195       F  0.74399764  0.91609806  0.94633649    -0.12900
F1196       F  0.68154997  0.94781670  0.91906399    -0.15300
F1197       F  0.67539367  0.81612516  0.98978244    -0.15300
F1198       F  0.61377159  0.84867374  0.96491554    -0.12900
C1199       C  0.57402076  0.86610240  0.86332961     0.25100
C1200       C  0.60461930  0.86524026  0.88739592    -0.23000
C1201       C  0.62946565  0.83499289  0.88270761     0.20000
C1202       C  0.62217642  0.80703260  0.85855988     0.25000
C1203       C  0.59242001  0.80924665  0.83497076    -0.23000
C1204       C  0.56998551  0.84030876  0.83574944     0.19900
F1205       F  0.54350203  0.84519058  0.80978784    -0.12900
F1206       F  0.54889009  0.89325345  0.86473222    -0.15300
F1207       F  0.64475645  0.77757546  0.85798795    -0.15300
F1208       F  0.66244782  0.83213176  0.89913978    -0.12900
C1209       C  0.44576107  0.86351453  0.86271064     0.25100
C1210       C  0.40816106  0.86883234  0.86230839    -0.23000
C1211       C  0.39072249  0.85154498  0.83242529     0.20000
C1212       C  0.40561262  0.81990743  0.81724757     0.25000
C1213       C  0.43881151  0.80548181  0.83093426    -0.23000
C1214       C  0.46075574  0.83177388  0.84852468     0.19900
F1215       F  0.49664659  0.82740586  0.85389866    -0.12900
F1216       F  0.46817028  0.88740488  0.87848560    -0.15300
F1217       F  0.39063445  0.80806248  0.78575226    -0.15300
F1218       F  0.36230160  0.86795924  0.81439962    -0.12900
C1219       C  0.64628508  0.85238143  0.14490727     0.25100
C1220       C  0.61728249  0.86598333  0.12127104    -0.23000
C1221       C  0.60966658  0.84454953  0.09026827     0.20000
C1222       C  0.63235317  0.81468502  0.08176637     0.25000
C1223       C  0.66175767  0.80393652  0.10492156    -0.23000
C1224       C  0.66506590  0.82020441  0.13868696     0.19900
F1225       F  0.69367820  0.81100178  0.16111628    -0.12900
F1226       F  0.66215898  0.87294450  0.17056482    -0.15300
F1227       F  0.62808707  0.79863308  0.04880132    -0.15300
F1228       F  0.58271130  0.85344006  0.06612364    -0.12900
C1229       C  0.65878718  0.92873916  0.10886982     0.25100
C1230       C  0.63063293  0.92970818  0.13488603    -0.23000
C1231       C  0.63652015  0.95047614  0.16634332     0.20000
C1232       C  0.67205843  0.95853260  0.17715165     0.25000
C1233       C  0.70158044  0.95002365  0.15428887    -0.23000
C1234       C  0.69410192  0.93738415  0.11913098     0.19900
F1235       F  0.72094415  0.93564097  0.09409380    -0.12900
F1236       F  0.65247026  0.91670687  0.07438362    -0.15300
F1237       F  0.67758575  0.97627568  0.20902090    -0.15300
F1238       F  0.60832276  0.96178597  0.18720192    -0.12900
C1239       C  0.66374272  0.05797908  0.84840944     0.25100
C1240       C  0.67825554  0.08408339  0.82418366    -0.23000
C1241       C  0.66901458  0.12022088  0.82892295     0.20000
C1242       C  0.64492583  0.13015949  0.85623699     0.25000
C1243       C  0.62864123  0.10408325  0.88012881    -0.23000
C1244       C  0.63846690  0.06754759  0.87501622     0.19900
F1245       F  0.62365243  0.04052507  0.89467278    -0.12900
F1246       F  0.67221300  0.02236356  0.84457299    -0.15300
F1247       F  0.63624955  0.16585812  0.85799333    -0.15300
F1248       F  0.68091623  0.14589445  0.80524764    -0.12900
C1249       C  0.41670467  0.16723060  0.81120012     0.25100
C1250       C  0.42126053  0.14670975  0.77960653    -0.23000
C1251       C  0.42202208  0.10860474  0.78401052     0.20000
C1252       C  0.41354667  0.09202184  0.81820634     0.25000
C1253       C  0.40277968  0.11334044  0.84810504    -0.23000
C1254       C  0.41267365  0.15029202  0.84531215     0.19900
F1255       F  0.41724254  0.17069764  0.87564380    -0.12900
F1256       F  0.42102617  0.20355752  0.80984598    -0.15300
F1257       F  0.41435617  0.05543647  0.82147352    -0.15300
F1258       F  0.43111337  0.08754640  0.75524305    -0.12900
C1259       C  0.55607609  0.19882799  0.86458937     0.25100
C1260       C  0.55526474  0.18247274  0.82982111    -0.23000
C1261       C  0.55478886  0.14437298  0.82865905     0.20000
C1262       C  0.55940829  0.12428954  0.86035396     0.25000
C1263       C  0.57481638  0.14107824  0.89101088    -0.23000
C1264       C  0.56490986  0.17745983  0.89581626     0.19900
F1265       F  0.55890597  0.19040172  0.92993073    -0.12900
F1266       F  0.54736822  0.23434102  0.86840455    -0.15300
F1267       F  0.55821863  0.08771594  0.85827824    -0.15300
F1268       F  0.55218469  0.12604715  0.79672422    -0.12900
C1269       C  0.40772246  0.81775445  0.17472093     0.25100
C1270       C  0.41979544  0.78949335  0.15214360    -0.23000
C1271       C  0.42392438  0.79674848  0.11525264     0.20000
C1272       C  0.42425626  0.83200644  0.10269190     0.25000
C1273       C  0.40181727  0.85854194  0.12067111    -0.23000
C1274       C  0.39608650  0.85119767  0.15880131     0.19900
F1275       F  0.37796060  0.87415170  0.18068258    -0.12900
F1276       F  0.40596752  0.81268783  0.21165293    -0.15300
F1277       F  0.43475931  0.83525407  0.06732096    -0.15300
F1278       F  0.42992398  0.76938287  0.09146756    -0.12900
C1279       C  0.58945631  0.84890423  0.21459574     0.25100
C1280       C  0.55723820  0.83211181  0.20552879    -0.23000
C1281       C  0.53097301  0.85353790  0.18553127     0.20000
C1282       C  0.54141487  0.88396862  0.16505878     0.25000
C1283       C  0.57741512  0.89584029  0.16689893    -0.23000
C1284       C  0.59662674  0.88290618  0.19935434     0.19900
F1285       F  0.62429520  0.90061823  0.21515125    -0.12900
F1286       F  0.61528705  0.83210712  0.23591531    -0.15300
F1287       F  0.51611686  0.90138176  0.14366235    -0.15300
F1288       F  0.49594455  0.84324602  0.18294226    -0.12900
C1289       C  0.16262747  0.93553060  0.69631103     0.25100
C1290       C  0.13597432  0.92368954  0.72061816    -0.23000
C1291       C  0.10145754  0.91731961  0.70591679     0.20000
C1292       C  0.09363684  0.92373502  0.66862676     0.25000
C1293       C  0.12206365  0.92831867  0.64265711    -0.23000
C1294       C  0.15630649  0.93726906  0.65830489     0.19900
F1295       F  0.18427426  0.94915255  0.63851829    -0.12900
F1296       F  0.19481941  0.94732925  0.70942246    -0.15300
F1297       F  0.05907204  0.91794420  0.65738255    -0.15300
F1298       F  0.07530083  0.90328090  0.72734772    -0.12900
C1299       C  0.09168309  0.10894073  0.68805012     0.25100
C1300       C  0.10262626  0.08931638  0.65599582    -0.23000
C1301       C  0.11317261  0.05300690  0.66259777     0.20000
C1302       C  0.12307533  0.04114040  0.69822312     0.25000
C1303       C  0.11956080  0.06409890  0.72870920    -0.23000
C1304       C  0.10160224  0.09707374  0.72341960     0.19900
F1305       F  0.09248449  0.11743863  0.75273900    -0.12900
F1306       F  0.06989481  0.13879972  0.68665054    -0.15300
F1307       F  0.13808519  0.00772554  0.70250244    -0.15300
F1308       F  0.11897335  0.03041844  0.63413570    -0.12900
C1309       C  0.32891446  0.07134243  0.83632096     0.25100
C1310       C  0.34299515  0.07861118  0.87218817    -0.23000
C1311       C  0.31744694  0.07541942  0.90122181     0.20000
C1312       C  0.28014641  0.07496765  0.89404899     0.25000
C1313       C  0.26678762  0.06802875  0.85883534    -0.23000
C1314       C  0.29198561  0.06430572  0.83050727     0.19900
F1315       F  0.28088444  0.05360077  0.79675262    -0.12900
F1316       F  0.34923453  0.07107725  0.80591100    -0.15300
F1317       F  0.25692047  0.08152382  0.92189906    -0.15300
F1318       F  0.32794413  0.07824769  0.93688163    -0.12900
C1319       C  0.34220385  0.92874831  0.87448102     0.25100
C1320       C  0.34862659  0.89218536  0.88489592    -0.23000
C1321       C  0.32074501  0.86789361  0.87364194     0.20000
C1322       C  0.28635534  0.88001823  0.86210857     0.25000
C1323       C  0.27916974  0.91663010  0.85626769    -0.23000
C1324       C  0.30804981  0.94079496  0.86112230     0.19900
F1325       F  0.30356749  0.97634260  0.85208496    -0.12900
F1326       F  0.36952135  0.95260471  0.87376596    -0.15300
F1327       F  0.26024391  0.85548650  0.85602488    -0.15300
F1328       F  0.32756644  0.83205892  0.86939772    -0.12900
C1329       C  0.13531435  0.67050034  0.14173991     0.25100
C1330       C  0.10640617  0.65047401  0.12517583    -0.23000
C1331       C  0.07120203  0.66441454  0.13237222     0.20000
C1332       C  0.06639225  0.69224299  0.15791452     0.25000
C1333       C  0.09409923  0.69988727  0.18368933    -0.23000
C1334       C  0.12929062  0.69207182  0.17246201     0.19900
F1335       F  0.15811922  0.70235506  0.19299642    -0.12900
F1336       F  0.17042778  0.66532061  0.13256390    -0.15300
F1337       F  0.03560222  0.71294850  0.15595353    -0.15300
F1338       F  0.04108687  0.65094877  0.11676247    -0.12900
C1339       C  0.85419033  0.62769758  0.08553046     0.25100
C1340       C  0.87062124  0.62632168  0.12088323    -0.23000
C1341       C  0.85368576  0.64784544  0.14868310     0.20000
C1342       C  0.82526228  0.67195763  0.14052563     0.25000
C1343       C  0.81187844  0.67514245  0.10485647    -0.23000
C1344       C  0.82452783  0.65098835  0.07820225     0.19900
F1345       F  0.81049510  0.65286900  0.04360956    -0.12900
F1346       F  0.86637902  0.60737252  0.05749402    -0.15300
F1347       F  0.81318161  0.69470187  0.16680907    -0.15300
F1348       F  0.86506510  0.64592647  0.18433905    -0.12900
C1349       C  0.93051223  0.66036704  0.15705234     0.25100
C1350       C  0.93295929  0.62264793  0.15153805    -0.23000
C1351       C  0.96174697  0.60559124  0.17086667     0.20000
C1352       C  0.97025727  0.61741237  0.20609229     0.25000
C1353       C  0.95715765  0.65150103  0.21807263    -0.23000
C1354       C  0.94135433  0.67461838  0.19087473     0.19900
F1355       F  0.93848874  0.71078456  0.19580038    -0.12900
F1356       F  0.91725764  0.68302759  0.13044581    -0.15300
F1357       F  0.99236307  0.59621639  0.22785993    -0.15300
F1358       F  0.97988808  0.57685330  0.15676591    -0.12900
C1359       C  0.84037205  0.46036105  0.87467345     0.25100
C1360       C  0.84174464  0.42423560  0.88719470    -0.23000
C1361       C  0.80710887  0.40701241  0.88890338     0.20000
C1362       C  0.77692983  0.42052832  0.86881125     0.25000
C1363       C  0.77844040  0.45351933  0.85011841    -0.23000
C1364       C  0.80972913  0.47422880  0.85573289     0.19900
F1365       F  0.81239477  0.50705292  0.83993637    -0.12900
F1366       F  0.87070643  0.48045203  0.87444601    -0.15300
F1367       F  0.74593896  0.40146139  0.86828866    -0.15300
F1368       F  0.80103638  0.37750189  0.91022260    -0.12900
C1369       C  0.09060519  0.71811945  0.84552556     0.25100
C1370       C  0.05435316  0.71889391  0.83345525    -0.23000
C1371       C  0.03038559  0.70007362  0.85671716     0.20000
C1372       C  0.04278104  0.66939527  0.87672230     0.25000
C1373       C  0.08052857  0.66269685  0.88192999    -0.23000
C1374       C  0.10225942  0.69311890  0.87275617     0.19900
F1375       F  0.13466369  0.69919118  0.88922523    -0.12900
F1376       F  0.11552353  0.73979397  0.83020201    -0.15300
F1377       F  0.01765602  0.64485284  0.88579732    -0.15300
F1378       F  0.99519266  0.71039951  0.85977918    -0.12900
C1379       C  0.84684632  0.66065363  0.95388785     0.25100
C1380       C  0.87811684  0.66039456  0.93218947    -0.23000
C1381       C  0.90087246  0.69078840  0.93494391     0.20000
C1382       C  0.88734231  0.72349133  0.94879097     0.25000
C1383       C  0.85204890  0.72575560  0.96241517    -0.23000
C1384       C  0.83279678  0.69348768  0.96676969     0.19900
F1385       F  0.79998688  0.69394870  0.98318974    -0.12900
F1386       F  0.82739074  0.63025570  0.95838262    -0.15300
F1387       F  0.90862334  0.75291145  0.94885031    -0.15300
F1388       F  0.93504342  0.68980302  0.92151319    -0.12900
C1389       C  0.92808537  0.62419266  0.84855186     0.25100
C1390       C  0.90496723  0.64583576  0.87007914    -0.23000
C1391       C  0.89025312  0.67808068  0.85267214     0.20000
C1392       C  0.89769101  0.68734713  0.81640539     0.25000
C1393       C  0.91725279  0.66364386  0.79434052    -0.23000
C1394       C  0.93223887  0.63177774  0.81103763     0.19900
F1395       F  0.95291911  0.60867642  0.79110706    -0.12900
F1396       F  0.94555817  0.59455861  0.86304970    -0.15300
F1397       F  0.88709779  0.72065989  0.80391771    -0.15300
F1398       F  0.86757630  0.70120587  0.87006496    -0.12900
C1399       C  0.85631409  0.58427395  0.86145348     0.25100
C1400       C  0.85128769  0.61455834  0.88458807    -0.23000
C1401       C  0.82003611  0.63723049  0.87560067     0.20000
C1402       C  0.79620904  0.62954955  0.84656223     0.25000
C1403       C  0.80338334  0.60101641  0.82316505    -0.23000
C1404       C  0.83462138  0.57960537  0.82993337     0.19900
F1405       F  0.84449609  0.55413205  0.80537232    -0.12900
F1406       F  0.88482134  0.56098548  0.86677716    -0.15300
F1407       F  0.76631498  0.65099554  0.84054872    -0.15300
F1408       F  0.81269593  0.66873475  0.89243213    -0.12900
C1409       C  0.10428452  0.61579713  0.78221180     0.25100
C1410       C  0.13463054  0.59284531  0.77958684    -0.23000
C1411       C  0.14332898  0.57067228  0.81061762     0.20000
C1412       C  0.12515152  0.57484363  0.84426643     0.25000
C1413       C  0.09928277  0.60340621  0.84901673    -0.23000
C1414       C  0.08591186  0.61986350  0.81564822     0.19900
F1415       F  0.05388370  0.63799437  0.81418775    -0.12900
F1416       F  0.09116916  0.63262085  0.75143104    -0.15300
F1417       F  0.13713031  0.55471840  0.87361054    -0.15300
F1418       F  0.16981838  0.54483160  0.80833862    -0.12900
C1419       C  0.16275481  0.45379856  0.81692878     0.25100
C1420       C  0.14109715  0.44502375  0.78609991    -0.23000
C1421       C  0.10543602  0.43481816  0.79256734     0.20000
C1422       C  0.09232264  0.43316179  0.82839417     0.25000
C1423       C  0.11691336  0.43056600  0.85851261    -0.23000
C1424       C  0.15043194  0.44712099  0.85305602     0.19900
F1425       F  0.16947395  0.45957185  0.88218249    -0.12900
F1426       F  0.19519794  0.46961088  0.81203418    -0.15300
F1427       F  0.05650867  0.42807433  0.83391158    -0.15300
F1428       F  0.08349448  0.42631759  0.76397561    -0.12900
C1429       C  0.83775911  0.57441526  0.20857660     0.25100
C1430       C  0.86333305  0.56768664  0.23712776    -0.23000
C1431       C  0.89879351  0.55733996  0.22632565     0.20000
C1432       C  0.90806240  0.55570875  0.18913652     0.25000
C1433       C  0.88608275  0.57285192  0.16200070    -0.23000
C1434       C  0.84856915  0.57425076  0.17144114     0.19900
F1435       F  0.82245709  0.57793657  0.14490998    -0.12900
F1436       F  0.80195758  0.57776653  0.21625914    -0.15300
F1437       F  0.93710545  0.53509990  0.17964897    -0.15300
F1438       F  0.92307134  0.54397760  0.25173087    -0.12900
C1439       C  0.82450574  0.41947468  0.13369968     0.25100
C1440       C  0.86210399  0.42433164  0.12675170    -0.23000
C1441       C  0.87905168  0.44876167  0.15065875     0.20000
C1442       C  0.86838318  0.44888131  0.18708662     0.25000
C1443       C  0.83367024  0.43645924  0.19773890    -0.23000
C1444       C  0.81025088  0.42686625  0.16873307     0.19900
F1445       F  0.77412066  0.42408663  0.17366429    -0.12900
F1446       F  0.80130425  0.40682895  0.10830546    -0.15300
F1447       F  0.89431420  0.45784564  0.21198280    -0.15300
F1448       F  0.91305644  0.46040468  0.14393075    -0.12900
C1449       C  0.04353884  0.19096804  0.62992240     0.25100
C1450       C  0.06798864  0.21554163  0.64566957    -0.23000
C1451       C  0.10473554  0.20654042  0.64611995     0.20000
C1452       C  0.11630307  0.17212290  0.63645176     0.25000
C1453       C  0.09215402  0.14684604  0.62002082    -0.23000
C1454       C  0.05561261  0.15830838  0.61529178     0.19900
F1455       F  0.03010828  0.13655998  0.60125169    -0.12900
F1456       F  0.00723760  0.19680445  0.63120234    -0.15300
F1457       F  0.15074969  0.16288557  0.64678030    -0.15300
F1458       F  0.12946381  0.23012048  0.65877607    -0.12900
C1459       C  0.93194806  0.16083249  0.64314529     0.25100
C1460       C  0.91155526  0.15654022  0.61071590    -0.23000
C1461       C  0.90443928  0.18914361  0.59006443     0.20000
C1462       C  0.90637176  0.22310430  0.60621987     0.25000
C1463       C  0.91967226  0.22652049  0.64211968    -0.23000
C1464       C  0.93413811  0.19499655  0.65980148     0.19900
F1465       F  0.95338053  0.19782932  0.69161916    -0.12900
F1466       F  0.95401992  0.13338094  0.65556302    -0.15300
F1467       F  0.89677696  0.25299637  0.58594858    -0.15300
F1468       F  0.89493339  0.18834011  0.55401389    -0.12900
C1469       C  0.92882765  0.34637406  0.82430429     0.25100
C1470       C  0.91340171  0.35741041  0.79028003    -0.23000
C1471       C  0.89416071  0.39024234  0.78879999     0.20000
C1472       C  0.88716975  0.40973378  0.82083259     0.25000
C1473       C  0.90017647  0.39731875  0.85630800    -0.23000
C1474       C  0.92563274  0.36785068  0.85562050     0.19900
F1475       F  0.94209703  0.35555406  0.88712435    -0.12900
F1476       F  0.94768913  0.31458375  0.82686801    -0.15300
F1477       F  0.86926112  0.44142439  0.81520274    -0.15300
F1478       F  0.88359640  0.40458397  0.75569931    -0.12900
C1479       C  0.10671739  0.33315629  0.81260456     0.25100
C1480       C  0.07078196  0.32316335  0.81097937    -0.23000
C1481       C  0.04876586  0.33024534  0.84157696     0.20000
C1482       C  0.05987669  0.35360433  0.86935698     0.25000
C1483       C  0.09422492  0.36961693  0.86777134    -0.23000
C1484       C  0.11855927  0.35529269  0.84066207     0.19900
F1485       F  0.15266668  0.36738037  0.83694560    -0.12900
F1486       F  0.12924335  0.32590994  0.78431035    -0.15300
F1487       F  0.03620585  0.36055204  0.89641565    -0.15300
F1488       F  0.01477220  0.31738495  0.84253937    -0.12900
C1489       C  0.68677298  0.12608074  0.06700181     0.25100
C1490       C  0.69908306  0.16137816  0.07128536    -0.23000
C1491       C  0.67276276  0.18918638  0.07043429     0.20000
C1492       C  0.63563171  0.18165328  0.07259566     0.25000
C1493       C  0.62284600  0.14522892  0.07482056    -0.23000
C1494       C  0.64984897  0.11829127  0.06740427     0.19900
F1495       F  0.64196237  0.08307402  0.06471702    -0.12900
F1496       F  0.71096161  0.09845457  0.06188282    -0.15300
F1497       F  0.61406842  0.21112294  0.07668786    -0.15300
F1498       F  0.68263498  0.22411892  0.06680943    -0.12900
C1499       C  0.68193775  0.18257909  0.93080515     0.25100
C1500       C  0.70952792  0.15584600  0.93174450    -0.23000
C1501       C  0.69910098  0.12020119  0.93953591     0.20000
C1502       C  0.66314544  0.11207739  0.94699184     0.25000
C1503       C  0.63449614  0.13641207  0.93613277    -0.23000
C1504       C  0.64520295  0.17322451  0.93211267     0.19900
F1505       F  0.62151760  0.20133196  0.93091953    -0.12900
F1506       F  0.69018353  0.21808618  0.93121176    -0.15300
F1507       F  0.65665286  0.07742708  0.95659911    -0.15300
F1508       F  0.72468904  0.09339412  0.94350254    -0.12900
C1509       C  0.87421318  0.29503725  0.09943441     0.25100
C1510       C  0.83978512  0.29418862  0.08337624    -0.23000
C1511       C  0.82464631  0.32668603  0.06830971     0.20000
C1512       C  0.84295940  0.35960768  0.07167560     0.25000
C1513       C  0.87570824  0.36081575  0.09165911    -0.23000
C1514       C  0.89345266  0.32682336  0.09906306     0.19900
F1515       F  0.92916341  0.32447480  0.10834377    -0.12900
F1516       F  0.89081104  0.26402907  0.11200734    -0.15300
F1517       F  0.83077284  0.38921517  0.05242838    -0.15300
F1518       F  0.79338417  0.32603502  0.04828166    -0.12900
C1519       C  0.86773651  0.35575099  0.94496421     0.25100
C1520       C  0.87013418  0.36495744  0.90753021    -0.23000
C1521       C  0.85735880  0.33872309  0.88195225     0.20000
C1522       C  0.84906113  0.30371766  0.89288262     0.25000
C1523       C  0.84580483  0.29503392  0.93002015    -0.23000
C1524       C  0.85388043  0.32242415  0.95582218     0.19900
F1525       F  0.84710053  0.31794270  0.99199783    -0.12900
F1526       F  0.87505781  0.38005808  0.97138035    -0.15300
F1527       F  0.84385604  0.27863564  0.86669591    -0.15300
F1528       F  0.85047580  0.34738751  0.84616647    -0.12900
C1529       C  0.21047898  0.58950567  0.07741890     0.25100
C1530       C  0.21917461  0.62397557  0.06381717    -0.23000
C1531       C  0.19069823  0.64868870  0.05519877     0.20000
C1532       C  0.15527295  0.64110993  0.06480354     0.25000
C1533       C  0.14854668  0.61079895  0.08736946    -0.23000
C1534       C  0.17469319  0.58222035  0.08731924     0.19900
F1535       F  0.16747437  0.54961153  0.10285003    -0.12900
F1536       F  0.23685349  0.56391097  0.08365279    -0.15300
F1537       F  0.12842484  0.66543230  0.05572933    -0.15300
F1538       F  0.19733026  0.68082585  0.03839451    -0.12900
C1539       C  0.18611012  0.64009316  0.94362718     0.25100
C1540       C  0.21301400  0.64382837  0.91646720    -0.23000
C1541       C  0.20211598  0.64206172  0.87988499     0.20000
C1542       C  0.16571477  0.63690038  0.87079452     0.25000
C1543       C  0.13891454  0.62872022  0.89810067    -0.23000
C1544       C  0.15011763  0.63225035  0.93486326     0.19900
F1545       F  0.12596645  0.63074564  0.96260460    -0.12900
F1546       F  0.19442408  0.64477805  0.97928377    -0.15300
F1547       F  0.15640078  0.64422142  0.83531971    -0.15300
F1548       F  0.22648656  0.64615284  0.85259052    -0.12900
C1549       C  0.33776295  0.82204611  0.10268123     0.25100
C1550       C  0.35657275  0.84515707  0.07777948    -0.23000
C1551       C  0.36376653  0.83177506  0.04302541     0.20000
C1552       C  0.35804754  0.79530251  0.03570325     0.25000
C1553       C  0.34412527  0.77067859  0.06256543    -0.23000
C1554       C  0.33515810  0.78511945  0.09659443     0.19900
F1555       F  0.32826505  0.76327502  0.12583051    -0.12900
F1556       F  0.32678618  0.83414210  0.13583261    -0.15300
F1557       F  0.36960269  0.78424116  0.00289286    -0.15300
F1558       F  0.37965946  0.85282000  0.01727897    -0.12900
C1559       C  0.33795283  0.79528886  0.93676574     0.25100
C1560       C  0.36102412  0.76729245  0.92410691    -0.23000
C1561       C  0.39694811  0.77607705  0.91641691     0.20000
C1562       C  0.40822599  0.81195040  0.91790399     0.25000
C1563       C  0.38273342  0.84080366  0.92086373    -0.23000
C1564       C  0.34965705  0.83132842  0.93753034     0.19900
F1565       F  0.32685572  0.85728931  0.95049156    -0.12900
F1566       F  0.30471519  0.78758096  0.94995130    -0.15300
F1567       F  0.44420861  0.81808025  0.92009307    -0.15300
F1568       F  0.42150815  0.74958064  0.90888764    -0.12900
C1569       C  0.16588016  0.43814257  0.15282319     0.25100
C1570       C  0.13022090  0.44269757  0.13752795    -0.23000
C1571       C  0.10711657  0.46612443  0.15743344     0.20000
C1572       C  0.11135218  0.46741068  0.19563902     0.25000
C1573       C  0.14398044  0.45495789  0.21306000    -0.23000
C1574       C  0.17272763  0.44555817  0.18982951     0.19900
F1575       F  0.20751199  0.44351700  0.20232454    -0.12900
F1576       F  0.19425615  0.42497470  0.13376149    -0.15300
F1577       F  0.08283623  0.47975376  0.21547031    -0.15300
F1578       F  0.07531126  0.47871650  0.14246253    -0.12900
C1579       C  0.09918930  0.58867330  0.21463426     0.25100
C1580       C  0.13382890  0.59269952  0.23121585    -0.23000
C1581       C  0.16329106  0.59502228  0.20771927     0.20000
C1582       C  0.15859759  0.59614359  0.16958103     0.25000
C1583       C  0.12363838  0.59315947  0.15178631    -0.23000
C1584       C  0.09434342  0.58804655  0.17604420     0.19900
F1585       F  0.06017612  0.58502450  0.16238068    -0.12900
F1586       F  0.06992886  0.58352476  0.23616928    -0.15300
F1587       F  0.18939467  0.60319314  0.15149897    -0.15300
F1588       F  0.19771268  0.59439201  0.22136999    -0.12900
C1589       C  0.21089415  0.11162958  0.61405531     0.25100
C1590       C  0.21430235  0.14039128  0.58924132    -0.23000
C1591       C  0.18364687  0.15183993  0.56875214     0.20000
C1592       C  0.15056435  0.13425190  0.57208825     0.25000
C1593       C  0.14490092  0.10907709  0.60131627    -0.23000
C1594       C  0.17697689  0.09664510  0.62085344     0.19900
F1595       F  0.17717503  0.07054252  0.64700891    -0.12900
F1596       F  0.24082230  0.09765559  0.63169709    -0.15300
F1597       F  0.12228316  0.14633091  0.55061292    -0.15300
F1598       F  0.18587524  0.18081236  0.54575712    -0.12900
C1599       C  0.14604820  0.13143667  0.43566741     0.25100
C1600       C  0.14336392  0.11516889  0.40071212    -0.23000
C1601       C  0.17698372  0.10706361  0.38281543     0.20000
C1602       C  0.21030959  0.11701358  0.39818217     0.25000
C1603       C  0.21163574  0.13538494  0.43124480    -0.23000
C1604       C  0.17933165  0.14182544  0.45000839     0.19900
F1605       F  0.17973359  0.16040087  0.48158459    -0.12900
F1606       F  0.11584186  0.14145505  0.45427180    -0.15300
F1607       F  0.24138758  0.10990671  0.37981869    -0.15300
F1608       F  0.17886720  0.09339381  0.34873046    -0.12900
C1609       C  0.53714199  0.22695618  0.09179642     0.25100
C1610       C  0.53729864  0.23691055  0.12915604    -0.23000
C1611       C  0.54475455  0.20955504  0.15541473     0.20000
C1612       C  0.55382851  0.17445687  0.14500353     0.25000
C1613       C  0.56229986  0.16640012  0.10794946    -0.23000
C1614       C  0.54886465  0.19182470  0.08126848     0.19900
F1615       F  0.55165353  0.18455129  0.04498190    -0.12900
F1616       F  0.52660933  0.25147312  0.06546973    -0.15300
F1617       F  0.55524278  0.14868996  0.17197465    -0.15300
F1618       F  0.54108777  0.21628019  0.19173937    -0.12900
C1619       C  0.43873281  0.15693541  0.16765733     0.25100
C1620       C  0.41365318  0.17643432  0.18909380    -0.23000
C1621       C  0.37854335  0.16376740  0.19102281     0.20000
C1622       C  0.36734076  0.13610401  0.16804085     0.25000
C1623       C  0.39012610  0.12197714  0.13954348    -0.23000
C1624       C  0.42727891  0.13031336  0.14322317     0.19900
F1625       F  0.45275395  0.11457127  0.12201833    -0.12900
F1626       F  0.47407607  0.16624992  0.16770694    -0.15300
F1627       F  0.33261146  0.12622442  0.17242543    -0.15300
F1628       F  0.35364998  0.18049758  0.21241951    -0.12900
C1629       C  0.10243940  0.36659715  0.21342923     0.25100
C1630       C  0.06605862  0.37225347  0.22278846    -0.23000
C1631       C  0.04337156  0.38992896  0.19548259     0.20000
C1632       C  0.05590941  0.39953946  0.16063949     0.25000
C1633       C  0.09204365  0.39290886  0.15098546    -0.23000
C1634       C  0.11483366  0.37532884  0.17834496     0.19900
F1635       F  0.15049656  0.36834253  0.17217068    -0.12900
F1636       F  0.12721532  0.35481530  0.23904087    -0.15300
F1637       F  0.03290758  0.41868095  0.13805504    -0.15300
F1638       F  0.00903725  0.40079952  0.20185202    -0.12900
C1639       C  0.90394938  0.18424474  0.42186159     0.25100
C1640       C  0.90445138  0.15797208  0.39423865    -0.23000
C1641       C  0.92659248  0.16522887  0.36357228     0.20000
C1642       C  0.93503551  0.20081125  0.35436944     0.25000
C1643       C  0.92546004  0.22927435  0.37770749    -0.23000
C1644       C  0.91259747  0.22024433  0.41295319     0.19900
F1645       F  0.90609901  0.24640638  0.43781765    -0.12900
F1646       F  0.88996425  0.17650030  0.45529853    -0.15300
F1647       F  0.95218032  0.20752737  0.32226265    -0.15300
F1648       F  0.93624712  0.13864686  0.34010385    -0.12900
C1649       C  0.94695039  0.35760077  0.19670914     0.25100
C1650       C  0.91963785  0.35362826  0.22348586    -0.23000
C1651       C  0.88388469  0.35577433  0.21115001     0.20000
C1652       C  0.87641232  0.36307670  0.17406420     0.25000
C1653       C  0.90310624  0.37822784  0.15007298    -0.23000
C1654       C  0.93926754  0.37417474  0.16215460     0.19900
F1655       F  0.96678937  0.38161683  0.13918759    -0.12900
F1656       F  0.98020656  0.34234623  0.20299431    -0.15300
F1657       F  0.84261680  0.35551407  0.16179380    -0.15300
F1658       F  0.85607739  0.35055844  0.23455597    -0.12900
C1659       C  0.11800491  0.18366069  0.37033880     0.25100
C1660       C  0.09271407  0.15618805  0.37998665    -0.23000
C1661       C  0.05606832  0.16738281  0.38241190     0.20000
C1662       C  0.04523238  0.20274046  0.37339776     0.25000
C1663       C  0.07047719  0.22968833  0.36454924    -0.23000
C1664       C  0.10710676  0.21970339  0.36448536     0.19900
F1665       F  0.13258082  0.24465733  0.35731209    -0.12900
F1666       F  0.15328090  0.17577127  0.36353147    -0.15300
F1667       F  0.00920385  0.20976371  0.37182973    -0.15300
F1668       F  0.02954508  0.14420670  0.39100711    -0.12900
C1669       C  0.27425882  0.90807106  0.09371165     0.25100
C1670       C  0.26886710  0.92180975  0.12870712    -0.23000
C1671       C  0.29974938  0.93005769  0.15015689     0.20000
C1672       C  0.33505969  0.92055989  0.13838705     0.25000
C1673       C  0.33983731  0.90191588  0.10533919    -0.23000
C1674       C  0.30916792  0.90200531  0.08098423     0.19900
F1675       F  0.31281945  0.89367535  0.04497503    -0.12900
F1676       F  0.24560555  0.90208802  0.07095440    -0.15300
F1677       F  0.36409060  0.93352563  0.15671484    -0.15300
F1678       F  0.29571444  0.94901125  0.18148419    -0.12900
C1679       C  0.12885565  0.05340514  0.30071875     0.25100
C1680       C  0.12984942  0.07742264  0.27022389    -0.23000
C1681       C  0.11544325  0.11222062  0.27445614     0.20000
C1682       C  0.10281297  0.12360271  0.30874566     0.25000
C1683       C  0.10672600  0.10103341  0.34110801    -0.23000
C1684       C  0.11667565  0.06457542  0.33518257     0.19900
F1685       F  0.11875476  0.04053031  0.36372265    -0.12900
F1686       F  0.14142306  0.01908521  0.29757961    -0.15300
F1687       F  0.08601120  0.15649148  0.30886242    -0.15300
F1688       F  0.11246494  0.13507096  0.24499103    -0.12900
C1689       C  0.33282826  0.06712427  0.13466339     0.25100
C1690       C  0.33756339  0.09160407  0.10508638    -0.23000
C1691       C  0.30735633  0.09790102  0.08125142     0.20000
C1692       C  0.27230675  0.09249821  0.09427969     0.25000
C1693       C  0.26719726  0.07523946  0.12839667    -0.23000
C1694       C  0.29779160  0.05982901  0.14679840     0.19900
F1695       F  0.29366719  0.03777917  0.17653422    -0.12900
F1696       F  0.36183357  0.05347789  0.15405678    -0.15300
F1697       F  0.24329630  0.10413026  0.07363728    -0.15300
F1698       F  0.31131252  0.11425903  0.04793552    -0.12900
C1699       C  0.15790389  0.94339718  0.28994397     0.25100
C1700       C  0.13236814  0.93014655  0.26483279    -0.23000
C1701       C  0.09768902  0.92266606  0.27774544     0.20000
C1702       C  0.08902229  0.92937820  0.31431657     0.25000
C1703       C  0.11665228  0.93287530  0.34123644    -0.23000
C1704       C  0.14968088  0.94617557  0.32716820     0.19900
F1705       F  0.17380719  0.96298448  0.34913801    -0.12900
F1706       F  0.18980052  0.95660437  0.27800282    -0.15300
F1707       F  0.05393171  0.93706718  0.32184775    -0.15300
F1708       F  0.07119115  0.91244922  0.25413863    -0.12900
C1709       C  0.19096553  0.34398897  0.91701361     0.25100
C1710       C  0.17320167  0.31764513  0.93768622    -0.23000
C1711       C  0.13879145  0.32626649  0.95105937     0.20000
C1712       C  0.12152555  0.35906378  0.94216568     0.25000
C1713       C  0.13612486  0.38364340  0.91594108    -0.23000
C1714       C  0.17315995  0.37655253  0.90662686     0.19900
F1715       F  0.19243810  0.39844753  0.88484961    -0.12900
F1716       F  0.22552866  0.33811298  0.90580461    -0.15300
F1717       F  0.08758928  0.36336855  0.95522962    -0.15300
F1718       F  0.12087190  0.30201154  0.97207063    -0.12900
C1719       C  0.38269923  0.21245300  0.06177986     0.25100
C1720       C  0.34906416  0.22909127  0.07007172    -0.23000
C1721       C  0.32363898  0.20767478  0.08783073     0.20000
C1722       C  0.33131062  0.17178594  0.09711906     0.25000
C1723       C  0.36370687  0.15299396  0.08590966    -0.23000
C1724       C  0.39011972  0.17568217  0.06997204     0.19900
F1725       F  0.42470447  0.16420753  0.06521621    -0.12900
F1726       F  0.40996655  0.23234936  0.04822006    -0.15300
F1727       F  0.30618043  0.15671291  0.11883695    -0.15300
F1728       F  0.29020528  0.22084497  0.09627835    -0.12900
C1729       C  0.15678064  0.32099269  0.09725933     0.25100
C1730       C  0.19056523  0.33204125  0.08458260    -0.23000
C1731       C  0.19418277  0.36821441  0.07307849     0.20000
C1732       C  0.16575426  0.39347256  0.07823803     0.25000
C1733       C  0.13492113  0.38355321  0.09818361    -0.23000
C1734       C  0.12875009  0.34606656  0.10224579     0.19900
F1735       F  0.09595057  0.33351155  0.11231221    -0.12900
F1736       F  0.15056600  0.28546125  0.10379510    -0.15300
F1737       F  0.16976567  0.42815888  0.06664033    -0.15300
F1738       F  0.22458808  0.37868833  0.05564889    -0.12900
C1739       C  0.36393872  0.14401163  0.93531338     0.25100
C1740       C  0.36185322  0.13442986  0.89788105    -0.23000
C1741       C  0.34024189  0.15716356  0.87377513     0.20000
C1742       C  0.32480947  0.18921968  0.88551089     0.25000
C1743       C  0.32576378  0.19762818  0.92257037    -0.23000
C1744       C  0.34485964  0.17437166  0.94756623     0.19900
F1745       F  0.34436627  0.18044139  0.98425398    -0.12900
F1746       F  0.38169762  0.12314318  0.96096292    -0.15300
F1747       F  0.30893048  0.21218957  0.86036522    -0.15300
F1748       F  0.33549540  0.14908221  0.83778300    -0.12900
C1749       C  0.56936393  0.63484750  0.63918768     0.25100
C1750       C  0.60564941  0.63207232  0.62789052    -0.23000
C1751       C  0.63165308  0.65280683  0.64767421     0.20000
C1752       C  0.62244416  0.67169411  0.67911824     0.25000
C1753       C  0.58642229  0.67406800  0.68989243    -0.23000
C1754       C  0.55975606  0.65798137  0.66743845     0.19900
F1755       F  0.52393621  0.66248337  0.67453014    -0.12900
F1756       F  0.54278045  0.61496883  0.62436281    -0.15300
F1757       F  0.64926436  0.68545421  0.70015911    -0.15300
F1758       F  0.66715358  0.65236227  0.63824990    -0.12900
C1759       C  0.68053819  0.57250484  0.59298874     0.25100
C1760       C  0.64961968  0.58368096  0.61183556    -0.23000
C1761       C  0.65022957  0.57463249  0.65004081     0.20000
C1762       C  0.68327534  0.57026229  0.66919481     0.25000
C1763       C  0.71629289  0.57228854  0.65032340    -0.23000
C1764       C  0.71435369  0.57111356  0.61150671     0.19900
F1765       F  0.74500575  0.56941834  0.59142920    -0.12900
F1766       F  0.67831093  0.56491279  0.55665461    -0.15300
F1767       F  0.68273732  0.56383078  0.70596977    -0.15300
F1768       F  0.61902518  0.57282073  0.66933742    -0.12900
C1769       C  0.66856399  0.65081733  0.55997124     0.25100
C1770       C  0.63189316  0.64191636  0.56838211    -0.23000
C1771       C  0.60622662  0.67089414  0.56239827     0.20000
C1772       C  0.61716109  0.70673269  0.56078726     0.25000
C1773       C  0.65395585  0.71529757  0.55928003    -0.23000
C1774       C  0.67897841  0.68672312  0.55525998     0.19900
F1775       F  0.71331355  0.69316802  0.54426420    -0.12900
F1776       F  0.69484531  0.62641555  0.55262070    -0.15300
F1777       F  0.59132778  0.73345182  0.56062409    -0.15300
F1778       F  0.57011133  0.66562829  0.56462110    -0.12900
C1779       C  0.43871397  0.36847051  0.63744833     0.25100
C1780       C  0.40522391  0.38512259  0.64495046    -0.23000
C1781       C  0.38853719  0.37016480  0.67695389     0.20000
C1782       C  0.39705506  0.33447023  0.68923959     0.25000
C1783       C  0.42261456  0.31347196  0.67026885    -0.23000
C1784       C  0.44327416  0.33161467  0.64328339     0.19900
F1785       F  0.47097537  0.31475524  0.62566340    -0.12900
F1786       F  0.46719841  0.38752900  0.62526156    -0.15300
F1787       F  0.38055280  0.32096416  0.71938156    -0.15300
F1788       F  0.36221318  0.38844629  0.69496782    -0.12900
C1789       C  0.34460589  0.44135914  0.64720361     0.25100
C1790       C  0.34677866  0.41724472  0.61770077    -0.23000
C1791       C  0.31421785  0.41091950  0.59785763     0.20000
C1792       C  0.28054002  0.41974581  0.61281212     0.25000
C1793       C  0.27843782  0.43893745  0.64556946    -0.23000
C1794       C  0.31074695  0.45141940  0.66148049     0.19900
F1795       F  0.30937844  0.47392686  0.69052531    -0.12900
F1796       F  0.37519112  0.45379158  0.66331695    -0.15300
F1797       F  0.24981538  0.41063767  0.59458657    -0.15300
F1798       F  0.31486605  0.39439519  0.56482770    -0.12900
C1799       C  0.34057431  0.29843411  0.61433946     0.25100
C1800       C  0.35375850  0.28053684  0.58339657    -0.23000
C1801       C  0.37753413  0.30143502  0.56091243     0.20000
C1802       C  0.38506793  0.33765503  0.56752775     0.25000
C1803       C  0.36969729  0.35614085  0.59699729    -0.23000
C1804       C  0.34531034  0.33558269  0.61895327     0.19900
F1805       F  0.32601460  0.35100008  0.64626389    -0.12900
F1806       F  0.32517067  0.27993028  0.64220681    -0.15300
F1807       F  0.40789691  0.35376495  0.54405338    -0.15300
F1808       F  0.39485955  0.28831411  0.53150646    -0.12900
C1809       C  0.63737025  0.43267256  0.36377463     0.25100
C1810       C  0.63537846  0.39876655  0.38249064    -0.23000
C1811       C  0.66824510  0.37689396  0.38279415     0.20000
C1812       C  0.69888666  0.38723516  0.36365682     0.25000
C1813       C  0.69886954  0.41920398  0.34347007    -0.23000
C1814       C  0.66827356  0.44232804  0.34432620     0.19900
F1815       F  0.66841128  0.47462289  0.32614272    -0.12900
F1816       F  0.60778048  0.45503045  0.36072054    -0.15300
F1817       F  0.72915039  0.36560529  0.36491674    -0.15300
F1818       F  0.67124408  0.34303082  0.39657639    -0.12900
C1819       C  0.57586758  0.31634516  0.39164676     0.25100
C1820       C  0.59554747  0.34523037  0.40748326    -0.23000
C1821       C  0.61807231  0.33573353  0.43769196     0.20000
C1822       C  0.63094503  0.29980900  0.44182160     0.25000
C1823       C  0.61666280  0.27165766  0.42063417    -0.23000
C1824       C  0.58719833  0.28016655  0.39730328     0.19900
F1825       F  0.56912386  0.25348252  0.38033279    -0.12900
F1826       F  0.54619262  0.32293360  0.36990007    -0.15300
F1827       F  0.65911338  0.29257344  0.46514104    -0.15300
F1828       F  0.63356849  0.36179907  0.45803949    -0.12900
C1829       C  0.60368043  0.35538458  0.32548677     0.25100
C1830       C  0.58328204  0.37974551  0.34815072    -0.23000
C1831       C  0.55377548  0.39826236  0.33071953     0.20000
C1832       C  0.54339790  0.38990644  0.29410372     0.25000
C1833       C  0.56229273  0.36315659  0.27380664    -0.23000
C1834       C  0.59403222  0.34833978  0.28929980     0.19900
F1835       F  0.61230702  0.32152243  0.27183621    -0.12900
F1836       F  0.63106783  0.33421794  0.33941213    -0.15300
F1837       F  0.51278720  0.40561673  0.27952347    -0.15300
F1838       F  0.53386711  0.42297213  0.34929246    -0.12900
C1839       C  0.38334399  0.61455799  0.31866736     0.25100
C1840       C  0.40124075  0.62157328  0.35327737    -0.23000
C1841       C  0.43380363  0.64117294  0.35066261     0.31200
C1842       C  0.44550807  0.65495149  0.31700650     0.25000
C1843       C  0.42908801  0.64501013  0.28381854    -0.23000
C1844       C  0.39845047  0.62416273  0.28501288     0.19900
F1845       F  0.38077572  0.61615448  0.25330671    -0.12900
F1846       F  0.34877115  0.60403226  0.31527937    -0.15300
F1847       F  0.47120531  0.68060582  0.31716884    -0.15300
F1848       F  0.45162134  0.65205102  0.38120597    -0.12900
C1849       C  0.39161691  0.68147176  0.42717853     0.25100
C1850       C  0.37528089  0.66073354  0.39951833    -0.23000
C1851       C  0.35001719  0.67987580  0.37540430     0.20000
C1852       C  0.33804924  0.71524535  0.38185869     0.25000
C1853       C  0.35241785  0.73440102  0.41086475    -0.23000
C1854       C  0.38155908  0.71818433  0.43131763     0.19900
F1855       F  0.39819425  0.73741474  0.45775778    -0.12900
F1856       F  0.41649087  0.66676757  0.45096600    -0.15300
F1857       F  0.30930068  0.72911999  0.36224097    -0.15300
F1858       F  0.33325161  0.66312502  0.34737577    -0.12900
C1859       C  0.31486187  0.61624444  0.41053574     0.25100
C1860       C  0.34533995  0.60089873  0.39247839    -0.23000
C1861       C  0.33892276  0.56909635  0.37326547     0.20000
C1862       C  0.30385298  0.56289149  0.35977686     0.25000
C1863       C  0.27368060  0.58436377  0.37068384    -0.23000
C1864       C  0.27938862  0.60913412  0.39867849     0.19900
F1865       F  0.25079997  0.62523563  0.41545402    -0.12900
F1866       F  0.31959745  0.63761971  0.43992604    -0.15300
F1867       F  0.29944887  0.53643717  0.33498669    -0.15300
F1868       F  0.36705779  0.54820965  0.36149262    -0.12900
C1869       C  0.66846670  0.66391406  0.42635462     0.25100
C1870       C  0.63243275  0.64957551  0.42523993    -0.23000
C1871       C  0.60415147  0.67651471  0.42563260     0.20000
C1872       C  0.61107941  0.71352358  0.42093907     0.25000
C1873       C  0.64659999  0.72639442  0.41822961    -0.23000
C1874       C  0.67498954  0.70099232  0.42233501     0.19900
F1875       F  0.70968372  0.71227486  0.42528662    -0.12900
F1876       F  0.69897418  0.64362825  0.43004985    -0.15300
F1877       F  0.58260141  0.73739711  0.42047955    -0.15300
F1878       F  0.56890090  0.66714764  0.42600442    -0.12900
C1879       C  0.63015649  0.64347270  0.34698769     0.25100
C1880       C  0.60750426  0.62308936  0.37086917    -0.23000
C1881       C  0.57156563  0.61796611  0.35926026     0.20000
C1882       C  0.55729790  0.63777605  0.32974442     0.25000
C1883       C  0.57932670  0.65991706  0.30770133    -0.23000
C1884       C  0.61619845  0.66123397  0.31590056     0.19900
F1885       F  0.63891045  0.67955723  0.29366257    -0.12900
F1886       F  0.66623918  0.64631489  0.35370250    -0.15300
F1887       F  0.52150245  0.63449189  0.32292265    -0.15300
F1888       F  0.54976694  0.59346579  0.37515802    -0.12900
C1889       C  0.71962656  0.57113772  0.41716748     0.25100
C1890       C  0.72723429  0.56567699  0.37969763    -0.23000
C1891       C  0.69768487  0.56253430  0.35541543     0.20000
C1892       C  0.66252422  0.57023743  0.36691835     0.25000
C1893       C  0.65634150  0.58551915  0.40190920    -0.23000
C1894       C  0.68376879  0.57855573  0.42855613     0.19900
F1895       F  0.67740961  0.58500925  0.46455053    -0.12900
F1896       F  0.74694299  0.57002553  0.44252681    -0.15300
F1897       F  0.63474029  0.56342878  0.34336036    -0.15300
F1898       F  0.70272269  0.55019083  0.32087876    -0.12900
C1899       C  0.34591446  0.43398243  0.36328019     0.25100
C1900       C  0.34525344  0.40498696  0.38870663    -0.23000
C1901       C  0.30981048  0.39411452  0.39977025     0.20000
C1902       C  0.27890086  0.40359603  0.37947370     0.25000
C1903       C  0.28059369  0.42886416  0.35113470    -0.23000
C1904       C  0.31426094  0.44458693  0.34345387     0.19900
F1905       F  0.31628785  0.47065514  0.31705685    -0.12900
F1906       F  0.37736229  0.45116986  0.35664544    -0.15300
F1907       F  0.24625413  0.39144588  0.39057383    -0.15300
F1908       F  0.30388725  0.37589737  0.43163034    -0.12900
C1909       C  0.36328743  0.33789143  0.45538598     0.25100
C1910       C  0.36663765  0.34778495  0.41827146    -0.23000
C1911       C  0.35262230  0.32289834  0.39189362     0.20000
C1912       C  0.34459850  0.28757602  0.40136693     0.25000
C1913       C  0.34211719  0.27755970  0.43806147    -0.23000
C1914       C  0.34770864  0.30458309  0.46471828     0.19900
F1915       F  0.33413143  0.30039042  0.49876294    -0.12900
F1916       F  0.36947597  0.36230047  0.48191505    -0.15300
F1917       F  0.33819946  0.26358268  0.37436176    -0.15300
F1918       F  0.34565449  0.33294074  0.35652155    -0.12900
C1919       C  0.43469424  0.34319783  0.38821606     0.25100
C1920       C  0.40882822  0.37002011  0.37472456    -0.23000
C1921       C  0.40237775  0.36995973  0.33590208     0.20000
C1922       C  0.41307436  0.34016110  0.31487125     0.25000
C1923       C  0.43194945  0.31065526  0.33105374    -0.23000
C1924       C  0.44491551  0.31381797  0.36694470     0.19900
F1925       F  0.46609305  0.28700677  0.38236091    -0.12900
F1926       F  0.44324184  0.33974077  0.42445871    -0.15300
F1927       F  0.40492576  0.34016382  0.27839565    -0.15300
F1928       F  0.38248357  0.39568309  0.31784969    -0.12900
C1929       C  0.63784803  0.44396201  0.64468809     0.25100
C1930       C  0.64199891  0.41300493  0.62227510    -0.23000
C1931       C  0.67787096  0.39719814  0.62153585     0.20000
C1932       C  0.70486058  0.40746182  0.64645108     0.25000
C1933       C  0.69794944  0.43400528  0.67227060    -0.23000
C1934       C  0.66497286  0.45354247  0.66984311     0.19900
F1935       F  0.65858562  0.48145981  0.69278628    -0.12900
F1936       F  0.60539140  0.46185569  0.64626109    -0.15300
F1937       F  0.73764790  0.39002779  0.64640585    -0.15300
F1938       F  0.68702613  0.36844541  0.60112572    -0.12900
C1939       C  0.56170816  0.39280518  0.66868528     0.25100
C1940       C  0.59421354  0.38158511  0.65209169    -0.23000
C1941       C  0.61737838  0.35689857  0.67275334     0.20000
C1942       C  0.60609083  0.34009632  0.70473338     0.25000
C1943       C  0.57096806  0.34614546  0.71689856    -0.23000
C1944       C  0.55033893  0.37529356  0.70103473     0.19900
F1945       F  0.51690124  0.38339616  0.71408772    -0.12900
F1946       F  0.53975190  0.41849188  0.65265857    -0.15300
F1947       F  0.62694970  0.31247335  0.71897688    -0.15300
F1948       F  0.64888131  0.34379691  0.65900475    -0.12900
C1949       C  0.63315288  0.35264655  0.56112296     0.25100
C1950       C  0.61027557  0.35636073  0.59143867    -0.23000
C1951       C  0.59119818  0.32492313  0.60230722     0.20000
C1952       C  0.60363844  0.29068226  0.59259869     0.25000
C1953       C  0.63275039  0.28697349  0.56880582    -0.23000
C1954       C  0.64647145  0.31821656  0.55186586     0.19900
F1955       F  0.67399229  0.31553194  0.52775526    -0.12900
F1956       F  0.64633823  0.38228189  0.54389402    -0.15300
F1957       F  0.58696813  0.26107811  0.60613211    -0.15300
F1958       F  0.56073727  0.32704695  0.62276674    -0.12900
C1959       C  0.43169795  0.66137929  0.64980171     0.25100
C1960       C  0.41781492  0.62634627  0.64367649    -0.23000
C1961       C  0.42802264  0.59992511  0.67035012     0.20000
C1962       C  0.43727987  0.61060407  0.70642290     0.25000
C1963       C  0.44191635  0.64746688  0.71454580    -0.23000
C1964       C  0.44170237  0.67208533  0.68492809     0.19900
F1965       F  0.45266257  0.70649694  0.68967799    -0.12900
F1966       F  0.43599328  0.68561660  0.62192165    -0.15300
F1967       F  0.43942829  0.58518996  0.73362538    -0.15300
F1968       F  0.42287279  0.56444202  0.66360904    -0.12900
C1969       C  0.38475373  0.67437822  0.56426811     0.25100
C1970       C  0.37624020  0.65755115  0.59787778    -0.23000
C1971       C  0.35358145  0.67822335  0.62205824     0.20000
C1972       C  0.33538115  0.71010680  0.61045221     0.25000
C1973       C  0.34347130  0.72606583  0.57668186    -0.23000
C1974       C  0.37100444  0.70914284  0.55563244     0.19900
F1975       F  0.38304584  0.72561608  0.52483616    -0.12900
F1976       F  0.40701675  0.65836257  0.53985745    -0.15300
F1977       F  0.30856770  0.72379544  0.63158054    -0.15300
F1978       F  0.34790083  0.66694876  0.65708798    -0.12900
C1979       C  0.34197210  0.59331055  0.65925780     0.25100
C1980       C  0.35351024  0.60093066  0.62237204    -0.23000
C1981       C  0.32506208  0.60201597  0.59543704     0.20000
C1982       C  0.28826835  0.60225419  0.60541922     0.25000
C1983       C  0.27785680  0.59419899  0.64163150    -0.23000
C1984       C  0.30547280  0.58818423  0.66775874     0.19900
F1985       F  0.29709519  0.57773869  0.70251722    -0.12900
F1986       F  0.36374733  0.59383876  0.68909126    -0.15300
F1987       F  0.26266475  0.61089723  0.57945022    -0.15300
F1988       F  0.33274066  0.60816791  0.55952106    -0.12900
loop_ 
_geom_bond_atom_site_label_1 
_geom_bond_atom_site_label_2 
_geom_bond_distance 
_geom_bond_site_symmetry_2 
_ccdc_geom_bond_type 
C1           C22   1.608       .  S
C1         C1960   1.575       .  S
C1         C1970   1.582       .  S
C1         C1980   1.597       .  S
N2            N3   1.326       .  A
N2            N8   1.324       .  A
N2          Mn31   2.274       .  S
N3           C10   1.362       .  A
N4            N6   1.326       .  A
N4            N5   1.345       .  A
N4          Mn20   2.340       .  S
N5           C11   1.378       .  A
N6            N7   1.327       .  A
N6          Mn31   2.252       .  S
N7           C11   1.356       .  A
N8            N9   1.338       .  A
N8          Mn20   2.283       .  S
N9           C10   1.369       .  A
C10          C52   1.601       .  S
C11          C48   1.603       .  S
N12          N18   1.328       .  A
N12          N13   1.340       .  A
N12         Mn42   2.311       .  S
N13          C21   1.369       .  A
N14          N15   1.340       .  A
N14          N16   1.327       .  A
N14         Mn20   2.313       .  S
N15          C22   1.370       .  A
N16          N17   1.339       .  A
N16         Mn42   2.318       .  S
N17          C22   1.370       .  A
N18          N19   1.333       .  A
N18         Mn20   2.304       .  S
N19          C21   1.368       .  A
Mn20        Cl44   2.633       .  S
C21          C50   1.608       .  S
N23          N24   1.342       .  A
N23          N29   1.324       .  A
N23         Mn31   2.312       .  S
N24          C32   1.371       .  A
N25          N27   1.319       .  A
N25          N26   1.329       .  A
N25         Mn43   2.246       .  S
N26          C33   1.359       .  A
N27          N28   1.337       .  A
N27         Mn31   2.297       .  S
N28          C33   1.371       .  A
N29          N30   1.341       .  A
N29         Mn43   2.332       .  S
N30          C32   1.376       .  A
Mn31        Cl44   2.607       .  S
C32          C51   1.618       .  S
C33          C47   1.577       .  S
N34          N35   1.329       .  A
N34          N40   1.325       .  A
N34         Mn42   2.270       .  S
N35          C45   1.362       .  A
N36          N37   1.332       .  A
N36          N38   1.327       .  A
N36         Mn43   2.254       .  S
N37          C46   1.361       .  A
N38          N39   1.336       .  A
N38         Mn42   2.302       .  S
N39          C46   1.369       .  A
N40          N41   1.333       .  A
N40         Mn43   2.275       .  S
N41          C45   1.363       .  A
Mn42        Cl44   2.618       .  S
Mn43        Cl44   2.615       .  S
C45          C53   1.581       .  S
C46          C49   1.593       .  S
C47        C1930   1.581       .  S
C47        C1940   1.565       .  S
C47        C1950   1.560       .  S
C48        C1900   1.575       .  S
C48        C1910   1.577       .  S
C48        C1920   1.586       .  S
C49        C1870   1.602       .  S
C49        C1880   1.552       .  S
C49        C1893   1.570       .  S
C50        C1840   1.582       .  S
C50        C1850   1.587       .  S
C50        C1860   1.568       .  S
C51        C1810   1.581       .  S
C51        C1820   1.574       .  S
C51        C1830   1.588       .  S
C52        C1780   1.574       .  S
C52        C1790   1.553       .  S
C52        C1803   1.591       .  S
C53        C1750   1.569       .  S
C53        C1760   1.578       .  S
C53        C1770   1.592       .  S
N54          C59   1.347   1_556  A
N54          C58   1.342       .  A
N54          H86   1.044   1_556  S
N55          C62   1.343       .  A
N55          C63   1.349       .  A
N56          C61   1.339       .  A
N56          C60   1.343   1_554  A
N56          H87   1.045       .  S
N57          C64   1.341       .  A
N57          C65   1.345       .  A
C58          C66   1.383       .  A
C58          C74   1.394       .  A
C59          C75   1.401       .  A
C59          C67   1.385   1_554  A
C60          C68   1.391   1_556  A
C60          C77   1.402       .  A
C61          C76   1.389       .  A
C61          C69   1.383       .  A
C62          C74   1.409       .  A
C62          C70   1.388       .  A
C63          C77   1.396       .  A
C63          C71   1.383       .  A
C64          C72   1.390       .  A
C64          C75   1.416       .  A
C65          C73   1.383       .  A
C65          C76   1.407       .  A
C66          C67   1.379       .  A
C66          H78   1.082       .  S
C67          H79   1.081   1_556  S
C68          C69   1.372       .  A
C68          H80   1.082   1_554  S
C69          H81   1.082       .  S
C70          C71   1.382       .  A
C70          H82   1.082       .  S
C71          H83   1.082       .  S
C72          C73   1.396       .  A
C72          H84   1.082       .  S
C73          H85   1.082       .  S
C74        C1743   1.479       .  S
C75        C1720   1.510       .  S
C76        C1730   1.476       .  S
C77        C1710   1.494       .  S
N88          C93   1.345   1_545  A
N88          C92   1.342       .  A
N88         H120   1.043   1_545  S
N89          C96   1.347       .  A
N89          C97   1.353       .  A
N90          C95   1.343   1_545  A
N90          C94   1.345       .  A
N90         H121   1.044       .  S
N91          C98   1.349       .  A
N91          C99   1.345       .  A
C92         C100   1.389       .  A
C92         C108   1.400       .  A
C93         C109   1.400       .  A
C93         C101   1.385       .  A
C94         C102   1.380       .  A
C94         C111   1.398       .  A
C95         C110   1.405       .  A
C95         C103   1.392       .  A
C96         C108   1.421       .  A
C96         C104   1.389       .  A
C97         C111   1.421       .  A
C97         C105   1.386       .  A
C98         C106   1.384       .  A
C98         C109   1.410       .  A
C99         C107   1.389       .  A
C99         C110   1.415       .  A
C100        C101   1.371   1_545  A
C100        H112   1.080       .  S
C101        H113   1.079       .  S
C102        C103   1.378   1_545  A
C102        H114   1.082       .  S
C103        H115   1.078       .  S
C104        C105   1.396       .  A
C104        H116   1.082       .  S
C105        H117   1.082       .  S
C106        C107   1.390       .  A
C106        H118   1.082       .  S
C107        H119   1.082       .  S
C108       C1693   1.484       .  S
C109       C1670   1.489       .  S
C110       C1700   1.485       .  S
C111       C1680   1.505       .  S
N122        C127   1.348       .  A
N122        C126   1.343   1_655  A
N122        H154   1.044       .  S
N123        C130   1.349       .  A
N123        C131   1.355       .  A
N124        C129   1.337       .  A
N124        C128   1.343   1_655  A
N124        H155   1.046       .  S
N125        C132   1.349       .  A
N125        C133   1.351       .  A
C126        C134   1.386       .  A
C126        C142   1.403       .  A
C127        C143   1.408       .  A
C127        C135   1.388       .  A
C128        C136   1.387       .  A
C128        C145   1.405       .  A
C129        C144   1.397       .  A
C129        C137   1.386       .  A
C130        C142   1.421       .  A
C130        C138   1.387       .  A
C131        C145   1.431       .  A
C131        C139   1.390       .  A
C132        C140   1.388       .  A
C132        C143   1.424       .  A
C133        C141   1.387       .  A
C133        C144   1.420       .  A
C134        C135   1.381   1_455  A
C134        H146   1.082       .  S
C135        H147   1.080       .  S
C136        C137   1.388   1_455  A
C136        H148   1.083       .  S
C137        H149   1.082       .  S
C138        C139   1.390       .  A
C138        H150   1.082       .  S
C139        H151   1.081       .  S
C140        C141   1.392       .  A
C140        H152   1.081       .  S
C141        H153   1.081       .  S
C142       C1663   1.505       .  S
C143       C1643   1.499       .  S
C144       C1650   1.507       .  S
C145       C1630   1.530       .  S
N156        C161   1.344       .  A
N156        C160   1.336       .  A
N156        H188   1.044       .  S
N157        C164   1.357       .  A
N157        C165   1.348       .  A
N158        C163   1.348       .  A
N158        C162   1.353       .  A
N158        H189   1.042       .  S
N159        C166   1.350       .  A
N159        C167   1.345       .  A
C160        C168   1.387       .  A
C160        C176   1.391       .  A
C161        C177   1.390       .  A
C161        C169   1.386       .  A
C162        C170   1.384       .  A
C162        C179   1.405       .  A
C163        C178   1.410       .  A
C163        C171   1.379       .  A
C164        C176   1.422       .  A
C164        C172   1.386       .  A
C165        C179   1.427       .  A
C165        C173   1.388       .  A
C166        C174   1.384       .  A
C166        C177   1.407       .  A
C167        C175   1.387       .  A
C167        C178   1.416       .  A
C168        C169   1.366       .  A
C168        H180   1.082       .  S
C169        H181   1.083       .  S
C170        C171   1.375       .  A
C170        H182   1.081       .  S
C171        H183   1.075       .  S
C172        C173   1.399       .  A
C172        H184   1.081       .  S
C173        H185   1.082       .  S
C174        C175   1.392       .  A
C174        H186   1.082       .  S
C175        H187   1.082       .  S
C176       C1833   1.496       .  S
C177       C1923   1.480       .  S
C178       C1620   1.503       .  S
C179       C1610   1.504       .  S
N190        C195   1.352       .  A
N190        C194   1.346       .  A
N190        H222   1.044       .  S
N191        C198   1.349       .  A
N191        C199   1.362       .  A
N192        C197   1.333       .  A
N192        C196   1.339       .  A
N192        H223   1.047       .  S
N193        C200   1.344       .  A
N193        C201   1.347       .  A
C194        C202   1.391       .  A
C194        C210   1.408       .  A
C195        C211   1.407       .  A
C195        C203   1.383       .  A
C196        C204   1.387       .  A
C196        C213   1.400       .  A
C197        C212   1.390       .  A
C197        C205   1.385       .  A
C198        C210   1.421       .  A
C198        C206   1.383       .  A
C199        C213   1.443       .  A
C199        C207   1.394       .  A
C200        C208   1.386       .  A
C200        C211   1.410       .  A
C201        C209   1.389       .  A
C201        C212   1.415       .  A
C202        C203   1.376       .  A
C202        H214   1.082       .  S
C203        H215   1.083       .  S
C204        C205   1.389       .  A
C204        H216   1.083       .  S
C205        H217   1.082       .  S
C206        C207   1.392       .  A
C206        H218   1.082       .  S
C207        H219   1.079       .  S
C208        C209   1.391       .  A
C208        H220   1.082       .  S
C209        H221   1.081       .  S
C210       C1590   1.489       .  S
C211       C1603   1.489       .  S
C212       C1913   1.499       .  S
C213       C1800   1.550       .  S
N224        C229   1.347       .  A
N224        C228   1.349       .  A
N224        H256   1.045       .  S
N225        C232   1.347       .  A
N225        C233   1.353       .  A
N226        C231   1.335       .  A
N226        C230   1.340       .  A
N226        H257   1.045       .  S
N227        C234   1.339       .  A
N227        C235   1.345       .  A
C228        C236   1.386       .  A
C228        C244   1.400       .  A
C229        C245   1.404       .  A
C229        C237   1.387       .  A
C230        C238   1.388       .  A
C230        C247   1.400       .  A
C231        C246   1.402       .  A
C231        C239   1.389       .  A
C232        C244   1.422       .  A
C232        C240   1.387       .  A
C233        C247   1.434       .  A
C233        C241   1.390       .  A
C234        C242   1.386       .  A
C234        C245   1.407       .  A
C235        C243   1.389       .  A
C235        C246   1.419       .  A
C236        C237   1.370       .  A
C236        H248   1.083       .  S
C237        H249   1.081       .  S
C238        C239   1.381       .  A
C238        H250   1.082       .  S
C239        H251   1.082       .  S
C240        C241   1.399       .  A
C240        H252   1.082       .  S
C241        H253   1.082       .  S
C242        C243   1.393       .  A
C242        H254   1.082       .  S
C243        H255   1.082       .  S
C244       C1863   1.498       .  S
C245       C1903   1.478       .  S
C246       C1573   1.510       .  S
C247       C1580   1.512       .  S
N258        C263   1.338   1_556  A
N258        C262   1.340       .  A
N258        H290   1.046       .  S
N259        C266   1.349       .  A
N259        C267   1.348       .  A
N260        C265   1.347   1_556  A
N260        C264   1.345       .  A
N260        H291   1.043       .  S
N261        C268   1.355       .  A
N261        C269   1.346       .  A
C262        C270   1.392       .  A
C262        C278   1.402       .  A
C263        C279   1.392       .  A
C263        C271   1.383       .  A
C264        C272   1.383       .  A
C264        C281   1.401       .  A
C265        C280   1.407       .  A
C265        C273   1.390       .  A
C266        C278   1.420       .  A
C266        C274   1.386       .  A
C267        C281   1.420       .  A
C267        C275   1.389       .  A
C268        C276   1.390       .  A
C268        C279   1.426       .  A
C269        C277   1.387       .  A
C269        C280   1.420       .  A
C270        C271   1.385   1_556  A
C270        H282   1.079       .  S
C271        H283   1.082       .  S
C272        C273   1.378   1_556  A
C272        H284   1.082       .  S
C273        H285   1.079       .  S
C274        C275   1.394       .  A
C274        H286   1.082       .  S
C275        H287   1.081       .  S
C276        C277   1.385       .  A
C276        H288   1.079       .  S
C277        H289   1.081       .  S
C278       C1560   1.500       .  S
C279       C1553   1.524       .  S
C280       C1530   1.487       .  S
C281       C1540   1.505       .  S
N292        C297   1.344       .  A
N292        C296   1.346   1_554  A
N292        H324   1.046       .  S
N293        C300   1.343       .  A
N293        C301   1.345       .  A
N294        C299   1.332       .  A
N294        C298   1.339   1_554  A
N294        H325   1.045       .  S
N295        C302   1.336       .  A
N295        C303   1.343       .  A
C296        C304   1.383       .  A
C296        C312   1.399       .  A
C297        C313   1.409       .  A
C297        C305   1.392       .  A
C298        C306   1.387       .  A
C298        C315   1.403       .  A
C299        C314   1.403       .  A
C299        C307   1.391       .  A
C300        C312   1.423       .  A
C300        C308   1.390       .  A
C301        C315   1.422       .  A
C301        C309   1.387       .  A
C302        C310   1.387       .  A
C302        C313   1.410       .  A
C303        C311   1.389       .  A
C303        C314   1.421       .  A
C304        C305   1.375   1_556  A
C304        H316   1.082       .  S
C305        H317   1.079       .  S
C306        C307   1.381   1_556  A
C306        H318   1.082       .  S
C307        H319   1.082       .  S
C308        C309   1.397       .  A
C308        H320   1.081       .  S
C309        H321   1.082       .  S
C310        C311   1.401       .  A
C310        H322   1.082       .  S
C311        H323   1.082       .  S
C312       C1523   1.509       .  S
C313       C1510   1.482       .  S
C314       C1490   1.506       .  S
C315       C1500   1.502       .  S
N326        C331   1.345       .  A
N326        C330   1.341   1_655  A
N326        H358   1.044       .  S
N327        C334   1.347       .  A
N327        C335   1.344       .  A
N328        C333   1.340       .  A
N328        C332   1.341   1_655  A
N328        H359   1.044       .  S
N329        C336   1.348       .  A
N329        C337   1.348       .  A
C330        C338   1.378       .  A
C330        C346   1.398       .  A
C331        C347   1.397       .  A
C331        C339   1.386       .  A
C332        C340   1.387       .  A
C332        C349   1.401       .  A
C333        C348   1.400       .  A
C333        C341   1.388       .  A
C334        C346   1.408       .  A
C334        C342   1.383       .  A
C335        C349   1.421       .  A
C335        C343   1.392       .  A
C336        C344   1.387       .  A
C336        C347   1.418       .  A
C337        C345   1.388       .  A
C337        C348   1.421       .  A
C338        C339   1.368   1_455  A
C338        H350   1.067       .  S
C339        H351   1.082       .  S
C340        C341   1.380   1_455  A
C340        H352   1.083       .  S
C341        H353   1.081       .  S
C342        C343   1.391       .  A
C342        H354   1.082       .  S
C343        H355   1.081       .  S
C344        C345   1.400       .  A
C344        H356   1.082       .  S
C345        H357   1.082       .  S
C346       C1480   1.492       .  S
C347       C1470   1.492       .  S
C348       C1463   1.497       .  S
C349       C1450   1.493       .  S
N360        C365   1.347       .  A
N360        C364   1.351       .  A
N360        H392   1.045       .  S
N361        C368   1.340       .  A
N361        C369   1.349       .  A
N362        C367   1.328       .  A
N362        C366   1.335       .  A
N362        H393   1.044       .  S
N363        C370   1.333       .  A
N363        C371   1.348       .  A
C364        C372   1.386       .  A
C364        C380   1.403       .  A
C365        C381   1.405       .  A
C365        C373   1.386       .  A
C366        C374   1.388       .  A
C366        C383   1.394       .  A
C367        C382   1.394       .  A
C367        C375   1.389       .  A
C368        C380   1.421       .  A
C368        C376   1.390       .  A
C369        C383   1.424       .  A
C369        C377   1.388       .  A
C370        C378   1.388       .  A
C370        C381   1.412       .  A
C371        C379   1.389       .  A
C371        C382   1.425       .  A
C372        C373   1.370       .  A
C372        H384   1.080       .  S
C373        H385   1.082       .  S
C374        C375   1.381       .  A
C374        H386   1.082       .  S
C375        H387   1.082       .  S
C376        C377   1.403       .  A
C376        H388   1.082       .  S
C377        H389   1.082       .  S
C378        C379   1.401       .  A
C378        H390   1.082       .  S
C379        H391   1.081       .  S
C380       C1890   1.489       .  S
C381       C1813   1.474       .  S
C382       C1443   1.524       .  S
C383       C1430   1.506       .  S
N394        C399   1.345       .  A
N394        C398   1.347       .  A
N394        H426   1.044       .  S
N395        C402   1.351       .  A
N395        C403   1.355       .  A
N396        C401   1.341       .  A
N396        C400   1.340       .  A
N396        H427   1.044       .  S
N397        C404   1.346       .  A
N397        C405   1.350       .  A
C398        C406   1.389       .  A
C398        C414   1.407       .  A
C399        C415   1.400       .  A
C399        C407   1.384       .  A
C400        C408   1.381       .  A
C400        C417   1.388       .  A
C401        C416   1.403       .  A
C401        C409   1.391       .  A
C402        C414   1.432       .  A
C402        C410   1.390       .  A
C403        C417   1.425       .  A
C403        C411   1.385       .  A
C404        C412   1.387       .  A
C404        C415   1.414       .  A
C405        C413   1.386       .  A
C405        C416   1.418       .  A
C406        C407   1.372       .  A
C406        H418   1.077       .  S
C407        H419   1.081       .  S
C408        C409   1.371       .  A
C408        H420   1.082       .  S
C409        H421   1.076       .  S
C410        C411   1.400       .  A
C410        H422   1.082       .  S
C411        H423   1.082       .  S
C412        C413   1.395       .  A
C412        H424   1.082       .  S
C413        H425   1.082       .  S
C414       C1983   1.505       .  S
C415       C1793   1.484       .  S
C416       C1420   1.496       .  S
C417       C1410   1.503       .  S
C428        C449   1.586       .  S
C428       C1380   1.557       .  S
C428       C1390   1.565       .  S
C428       C1400   1.582       .  S
N429        N430   1.341       .  A
N429        N435   1.321       .  A
N429       Mn458   2.303       .  S
N430        C437   1.372       .  A
N431        N433   1.316       .  A
N431        N432   1.338       .  A
N431       Mn447   2.277   1_455  S
N432        C438   1.368       .  A
N433        N434   1.335       .  A
N433       Mn458   2.298   1_554  S
N434        C438   1.372       .  A
N435        N436   1.337       .  A
N435       Mn447   2.314   1_456  S
N436        C437   1.371       .  A
C437        C476   1.619       .  S
C438        C513   1.606       .  S
N439        N445   1.325       .  A
N439        N440   1.337       .  A
N439       Mn469   2.277       .  S
N440        C448   1.364       .  A
N441        N442   1.330       .  A
N441        N443   1.326       .  A
N441       Mn447   2.265   1_556  S
N442        C449   1.360       .  A
N443        N444   1.340       .  A
N443       Mn469   2.325   1_556  S
N444        C449   1.373       .  A
N445        N446   1.331       .  A
N445       Mn447   2.294       .  S
N446        C448   1.367       .  A
Mn447      Cl471   2.618       .  S
C448        C478   1.578       .  S
N450        N451   1.324       .  A
N450        N456   1.324       .  A
N450       Mn458   2.238   1_554  S
N451        C459   1.355       .  A
N452        N454   1.325       .  A
N452        N453   1.332       .  A
N452       Mn470   2.283   1_456  S
N453        C460   1.362       .  A
N454        N455   1.332       .  A
N454       Mn458   2.283       .  S
N455        C460   1.365       .  A
N456        N457   1.339       .  A
N456       Mn470   2.316   1_455  S
N457        C459   1.372       .  A
Mn458      Cl471   2.594   1_456  S
C459        C514   1.574       .  S
C460        C475   1.587       .  S
N461        N462   1.336       .  A
N461        N467   1.325       .  A
N461       Mn469   2.296   1_556  S
N462        C472   1.368       .  A
N463        N464   1.345       .  A
N463        N465   1.322       .  A
N463       Mn470   2.294       .  S
N464        C473   1.371       .  A
N465        N466   1.328       .  A
N465       Mn469   2.293       .  S
N466        C473   1.368       .  A
N467        N468   1.341       .  A
N467       Mn470   2.323   1_556  S
N468        C472   1.373       .  A
Mn469      Cl471   2.597       .  S
Mn470      Cl471   2.621       .  S
C472        C477   1.611       .  S
C473        C474   1.603       .  S
C474       C1440   1.582       .  S
C474       C1513   1.565       .  S
C474       C1653   1.592       .  S
C475       C1423   1.573       .  S
C475       C1483   1.589       .  S
C475       C1713   1.573       .  S
C476       C1373   1.591       .  S
C476       C1413   1.590       .  S
C476       C1543   1.578       .  S
C477       C1360   1.585       .  S
C477       C1473   1.590       .  S
C477       C1520   1.569       .  S
C478       C1340   1.568       .  S
C478       C1350   1.577       .  S
C478       C1433   1.601       .  S
N479        C484   1.343       .  A
N479        C483   1.341       .  A
N479        H511   1.042       .  S
N480        C487   1.353       .  A
N480        C488   1.349       .  A
N481        C486   1.347       .  A
N481        C485   1.349       .  A
N481        H512   1.040       .  S
N482        C489   1.353       .  A
N482        C490   1.354       .  A
C483        C491   1.384       .  A
C483        C499   1.394       .  A
C484        C500   1.394       .  A
C484        C492   1.385       .  A
C485        C493   1.384       .  A
C485        C502   1.402       .  A
C486        C501   1.405       .  A
C486        C494   1.388       .  A
C487        C499   1.416       .  A
C487        C495   1.384       .  A
C488        C502   1.412       .  A
C488        C496   1.386       .  A
C489        C497   1.386       .  A
C489        C500   1.417       .  A
C490        C498   1.384       .  A
C490        C501   1.419       .  A
C491        C492   1.376       .  A
C491        H503   1.081       .  S
C492        H504   1.080       .  S
C493        C494   1.376       .  A
C493        H505   1.082       .  S
C494        H506   1.082       .  S
C495        C496   1.387       .  A
C495        H507   1.083       .  S
C496        H508   1.082       .  S
C497        C498   1.388       .  A
C497        H509   1.082       .  S
C498        H510   1.083       .  S
C499       C1933   1.488       .  S
C500       C1763   1.502       .  S
C501       C1403   1.495       .  S
C502       C1363   1.506       .  S
C513       C1330   1.592       .  S
C513       C1533   1.547       .  S
C513       C1583   1.586       .  S
C514       C1570   1.572       .  S
C514       C1633   1.575       .  S
C514       C1733   1.549       .  S
N515        C520   1.344   1_565  A
N515        C519   1.343       .  A
N515        H547   1.044       .  S
N516        C523   1.350       .  A
N516        C524   1.349       .  A
N517        C522   1.341   1_565  A
N517        C521   1.343       .  A
N517        H548   1.044       .  S
N518        C525   1.349       .  A
N518        C526   1.349       .  A
C519        C527   1.381       .  A
C519        C535   1.395       .  A
C520        C536   1.404       .  A
C520        C528   1.391       .  A
C521        C529   1.391       .  A
C521        C538   1.405       .  A
C522        C537   1.393       .  A
C522        C530   1.381       .  A
C523        C535   1.418       .  A
C523        C531   1.387       .  A
C524        C538   1.422       .  A
C524        C532   1.388       .  A
C525        C533   1.388       .  A
C525        C536   1.419       .  A
C526        C534   1.386       .  A
C526        C537   1.415       .  A
C527        C528   1.375   1_565  A
C527        H539   1.083       .  S
C528        H540   1.077       .  S
C529        C530   1.377   1_565  A
C529        H541   1.077       .  S
C530        H542   1.082       .  S
C531        C532   1.390       .  A
C531        H543   1.082       .  S
C532        H544   1.082       .  S
C533        C534   1.392       .  A
C533        H545   1.082       .  S
C534        H546   1.082       .  S
C535       C1323   1.499       .  S
C536       C1313   1.496       .  S
C537       C1303   1.493       .  S
C538       C1290   1.500       .  S
N549        C554   1.340       .  A
N549        C553   1.338       .  A
N549        H581   1.046       .  S
N550        C557   1.337       .  A
N550        C558   1.339       .  A
N551        C556   1.342       .  A
N551        C555   1.344       .  A
N551        H582   1.044       .  S
N552        C559   1.349       .  A
N552        C560   1.337       .  A
C553        C561   1.397       .  A
C553        C569   1.406       .  A
C554        C570   1.388       .  A
C554        C562   1.377       .  A
C555        C563   1.381       .  A
C555        C572   1.397       .  A
C556        C571   1.406       .  A
C556        C564   1.392       .  A
C557        C569   1.400       .  A
C557        C565   1.387       .  A
C558        C572   1.404       .  A
C558        C566   1.388       .  A
C559        C567   1.387       .  A
C559        C570   1.417       .  A
C560        C568   1.390       .  A
C560        C571   1.415       .  A
C561        C562   1.371       .  A
C561        H573   1.076       .  S
C562        H574   1.083       .  S
C563        C564   1.382       .  A
C563        H575   1.082       .  S
C564        H576   1.082       .  S
C565        C566   1.392       .  A
C565        H577   1.082       .  S
C566        H578   1.082       .  S
C567        C568   1.397       .  A
C567        H579   1.081       .  S
C568        H580   1.082       .  S
C569       C1270   1.473       .  S
C570       C1280   1.509       .  S
C571       C1883   1.484       .  S
C572       C1843   1.483       .  S
N583        C588   1.341       .  A
N583        C587   1.334       .  A
N583        H615   1.045       .  S
N584        C591   1.339       .  A
N584        C592   1.328       .  A
N585        C590   1.345       .  A
N585        C589   1.341       .  A
N585        H616   1.042       .  S
N586        C593   1.338       .  A
N586        C594   1.342       .  A
C587        C595   1.390       .  A
C587        C603   1.390       .  A
C588        C604   1.391       .  A
C588        C596   1.382       .  A
C589        C597   1.382       .  A
C589        C606   1.404       .  A
C590        C605   1.411       .  A
C590        C598   1.393       .  A
C591        C603   1.413       .  A
C591        C599   1.388       .  A
C592        C606   1.406       .  A
C592        C600   1.390       .  A
C593        C601   1.390       .  A
C593        C604   1.422       .  A
C594        C602   1.391       .  A
C594        C605   1.433       .  A
C595        C596   1.375       .  A
C595        H607   1.082       .  S
C596        H608   1.082       .  S
C597        C598   1.379       .  A
C597        H609   1.082       .  S
C598        H610   1.082       .  S
C599        C600   1.403       .  A
C599        H611   1.082       .  S
C600        H612   1.082       .  S
C601        C602   1.411       .  A
C601        H613   1.080       .  S
C602        H614   1.082       .  S
C603       C1943   1.478       .  S
C604       C1783   1.497       .  S
C605       C1250   1.499       .  S
C606       C1260   1.477       .  S
C617        C638   1.574       .  S
C617       C1243   1.579       .  S
C617       C1263   1.543       .  S
C617       C1503   1.577       .  S
N618        N619   1.342       .  A
N618        N624   1.325       .  A
N618       Mn647   2.317   1_556  S
N619        C626   1.373       .  A
N620        N622   1.323       .  A
N620        N621   1.329       .  A
N620       Mn636   2.269   1_565  S
N621        C627   1.366       .  A
N622        N623   1.339       .  A
N622       Mn647   2.307       .  S
N623        C627   1.371       .  A
N624        N625   1.333       .  A
N624       Mn636   2.294   1_566  S
N625        C626   1.365       .  A
C626        C666   1.595       .  S
C627        C663   1.607       .  S
N628        N634   1.323       .  A
N628        N629   1.337       .  A
N628       Mn658   2.263   1_554  S
N629        C637   1.363       .  A
N630        N631   1.329       .  A
N630        N632   1.319       .  A
N630       Mn636   2.225   1_556  S
N631        C638   1.356       .  A
N632        N633   1.322       .  A
N632       Mn658   2.243       .  S
N633        C638   1.365       .  A
N634        N635   1.334       .  A
N634       Mn636   2.314       .  S
N635        C637   1.371       .  A
Mn636      Cl660   2.603       .  S
C637        C703   1.609       .  S
N639        N640   1.323       .  A
N639        N645   1.325       .  A
N639       Mn647   2.275       .  S
N640        C648   1.360       .  A
N641        N643   1.325       .  A
N641        N642   1.335       .  A
N641       Mn659   2.286       .  S
N642        C649   1.365       .  A
N643        N644   1.336       .  A
N643       Mn647   2.298   1_556  S
N644        C649   1.370       .  A
N645        N646   1.336       .  A
N645       Mn659   2.259   1_554  S
N646        C648   1.365       .  A
Mn647      Cl660   2.606   1_565  S
C648        C667   1.587       .  S
C649        C664   1.604       .  S
N650        N651   1.333       .  A
N650        N656   1.323       .  A
N650       Mn658   2.278       .  S
N651        C661   1.365       .  A
N652        N653   1.338       .  A
N652        N654   1.321       .  A
N652       Mn659   2.323   1_544  S
N653        C662   1.378       .  A
N654        N655   1.327       .  A
N654       Mn658   2.235   1_554  S
N655        C662   1.355       .  A
N656        N657   1.330       .  A
N656       Mn659   2.260   1_545  S
N657        C661   1.361       .  A
Mn658      Cl660   2.597   1_556  S
Mn659      Cl660   2.614   1_566  S
C661        C665   1.570       .  S
C662        C702   1.601       .  S
C663       C1220   1.593       .  S
C663       C1230   1.555       .  S
C663       C1283   1.589       .  S
C664       C1210   1.578       .  S
C664       C1320   1.585       .  S
C664       C1563   1.585       .  S
C665       C1253   1.587       .  S
C665       C1310   1.590       .  S
C665       C1740   1.561       .  S
C666       C1180   1.571       .  S
C666       C1190   1.551       .  S
C666       C1200   1.583       .  S
C667       C1273   1.582       .  S
C667       C1550   1.579       .  S
C667       C1673   1.568       .  S
N668        C673   1.347       .  A
N668        C672   1.341       .  A
N668        H700   1.045       .  S
N669        C676   1.340       .  A
N669        C677   1.342       .  A
N670        C675   1.338       .  A
N670        C674   1.342       .  A
N670        H701   1.046       .  S
N671        C678   1.346       .  A
N671        C679   1.353       .  A
C672        C680   1.385       .  A
C672        C688   1.401       .  A
C673        C689   1.403       .  A
C673        C681   1.387       .  A
C674        C682   1.385       .  A
C674        C691   1.395       .  A
C675        C690   1.399       .  A
C675        C683   1.389       .  A
C676        C688   1.415       .  A
C676        C684   1.391       .  A
C677        C691   1.408       .  A
C677        C685   1.385       .  A
C678        C686   1.384       .  A
C678        C689   1.425       .  A
C679        C687   1.393       .  A
C679        C690   1.436       .  A
C680        C681   1.377       .  A
C680        H692   1.083       .  S
C681        H693   1.078       .  S
C682        C683   1.382       .  A
C682        H694   1.082       .  S
C683        H695   1.078       .  S
C684        C685   1.399       .  A
C684        H696   1.081       .  S
C685        H697   1.082       .  S
C686        C687   1.396       .  A
C686        H698   1.082       .  S
C687        H699   1.077       .  S
C688       C1753   1.494       .  S
C689       C1963   1.499       .  S
C690       C1213   1.541       .  S
C691       C1203   1.483       .  S
C702       C1623   1.585       .  S
C702       C1690   1.556       .  S
C702       C1723   1.593       .  S
C703       C1170   1.573       .  S
C703       C1493   1.595       .  S
C703       C1613   1.585       .  S
N704        C709   1.336       .  A
N704        C708   1.336       .  A
N704        H736   1.013       .  S
N705        C712   1.351       .  A
N705        C713   1.336       .  A
N706        C711   1.351   1_455  A
N706        C710   1.350       .  A
N706        H737   1.045       .  S
N707        C714   1.348       .  A
N707        C715   1.350       .  A
C708        C716   1.398       .  A
C708        C724   1.413       .  A
C709        C725   1.393   1_455  A
C709        C717   1.379       .  A
C710        C718   1.394       .  A
C710        C727   1.417       .  A
C711        C726   1.404       .  A
C711        C719   1.379   1_655  A
C712        C724   1.425       .  A
C712        C720   1.387       .  A
C713        C727   1.419       .  A
C713        C721   1.390       .  A
C714        C722   1.388       .  A
C714        C725   1.422       .  A
C715        C723   1.388       .  A
C715        C726   1.422       .  A
C716        C717   1.383       .  A
C716        H728   1.083       .  S
C717        H729   1.082       .  S
C718        C719   1.376       .  A
C718        H730   1.080       .  S
C719        H731   1.082   1_455  S
C720        C721   1.400       .  A
C720        H732   1.082       .  S
C721        H733   1.082       .  S
C722        C723   1.394       .  A
C722        H734   1.082       .  S
C723        H735   1.081       .  S
C724       C1333   1.518       .  S
C725       C1353   1.498       .  S
C726       C1160   1.514       .  S
C727       C1150   1.478       .  S
N738        C743   1.340       .  A
N738        C742   1.342       .  A
N738        H770   1.044       .  S
N739        C746   1.346       .  A
N739        C747   1.335       .  A
N740        C745   1.348       .  A
N740        C744   1.342       .  A
N740        H771   1.044       .  S
N741        C748   1.347       .  A
N741        C749   1.352       .  A
C742        C750   1.376       .  A
C742        C758   1.397       .  A
C743        C759   1.392   1_545  A
C743        C751   1.389       .  A
C744        C752   1.389       .  A
C744        C761   1.406       .  A
C745        C760   1.408   1_545  A
C745        C753   1.385       .  A
C746        C758   1.405       .  A
C746        C754   1.384       .  A
C747        C761   1.405       .  A
C747        C755   1.390       .  A
C748        C756   1.383       .  A
C748        C759   1.411       .  A
C749        C757   1.392       .  A
C749        C760   1.429       .  A
C750        C751   1.368       .  A
C750        H762   1.072       .  S
C751        H763   1.081       .  S
C752        C753   1.385       .  A
C752        H764   1.082       .  S
C753        H765   1.082       .  S
C754        C755   1.389       .  A
C754        H766   1.082       .  S
C755        H767   1.082       .  S
C756        C757   1.390       .  A
C756        H768   1.082       .  S
C757        H769   1.080       .  S
C758       C1173   1.489       .  S
C759       C1233   1.479       .  S
C760       C1133   1.523       .  S
C761       C1143   1.468       .  S
N772        C777   1.341       .  A
N772        C776   1.343       .  A
N772        H804   1.045       .  S
N773        C780   1.355       .  A
N773        C781   1.353       .  A
N774        C779   1.346       .  A
N774        C778   1.344       .  A
N774        H805   1.042       .  S
N775        C782   1.346       .  A
N775        C783   1.345       .  A
C776        C784   1.390       .  A
C776        C792   1.402       .  A
C777        C793   1.396       .  A
C777        C785   1.383       .  A
C778        C786   1.387       .  A
C778        C795   1.400       .  A
C779        C794   1.405       .  A
C779        C787   1.387       .  A
C780        C792   1.430       .  A
C780        C788   1.389       .  A
C781        C795   1.424       .  A
C781        C789   1.386       .  A
C782        C790   1.389       .  A
C782        C793   1.414       .  A
C783        C791   1.385       .  A
C783        C794   1.410       .  A
C784        C785   1.379       .  A
C784        H796   1.078       .  S
C785        H797   1.083       .  S
C786        C787   1.376       .  A
C786        H798   1.082       .  S
C787        H799   1.081       .  S
C788        C789   1.395       .  A
C788        H800   1.082       .  S
C789        H801   1.082       .  S
C790        C791   1.388       .  A
C790        H802   1.081       .  S
C791        H803   1.082       .  S
C792       C1110   1.512       .  S
C793       C1120   1.492       .  S
C794       C1953   1.481       .  S
C795       C1823   1.500       .  S
N806        C811   1.348       .  A
N806        C810   1.347       .  A
N806        H838   1.049       .  S
N807        C814   1.344       .  A
N807        C815   1.349       .  A
N808        C813   1.343       .  A
N808        C812   1.348       .  A
N808        H839   1.045       .  S
N809        C816   1.348       .  A
N809        C817   1.347       .  A
C810        C818   1.384       .  A
C810        C826   1.398       .  A
C811        C827   1.407       .  A
C811        C819   1.389       .  A
C812        C820   1.384       .  A
C812        C829   1.398       .  A
C813        C828   1.397       .  A
C813        C821   1.382       .  A
C814        C826   1.416       .  A
C814        C822   1.384       .  A
C815        C829   1.423       .  A
C815        C823   1.391       .  A
C816        C824   1.388       .  A
C816        C827   1.424       .  A
C817        C825   1.388       .  A
C817        C828   1.417       .  A
C818        C819   1.372       .  A
C818        H830   1.082       .  S
C819        H831   1.083       .  S
C820        C821   1.369       .  A
C820        H832   1.083       .  S
C821        H833   1.076       .  S
C822        C823   1.399       .  A
C822        H834   1.082       .  S
C823        H835   1.080       .  S
C824        C825   1.399       .  A
C824        H836   1.082       .  S
C825        H837   1.082       .  S
C826       C1100   1.490       .  S
C827       C1090   1.523       .  S
C828       C1853   1.498       .  S
C829       C1973   1.511       .  S
C840        C861   1.577       .  S
C840       C1113   1.597       .  S
C840       C1140   1.554       .  S
C840       C1640   1.562       .  S
N841        N842   1.333       .  A
N841        N847   1.321       .  A
N841       Mn870   2.256       .  S
N842        C849   1.364       .  A
N843        N845   1.323       .  A
N843        N844   1.334       .  A
N843       Mn859   2.271   1_565  S
N844        C850   1.365       .  A
N845        N846   1.335       .  A
N845       Mn870   2.291   1_565  S
N846        C850   1.366       .  A
N847        N848   1.331       .  A
N847       Mn859   2.298       .  S
N848        C849   1.368       .  A
C849        C889   1.584       .  S
C850        C890   1.590       .  S
N851        N857   1.326       .  A
N851        N852   1.335       .  A
N851       Mn881   2.303   1_565  S
N852        C860   1.368       .  A
N853        N854   1.329       .  A
N853        N855   1.321       .  A
N853       Mn859   2.230       .  S
N854        C861   1.355       .  A
N855        N856   1.336       .  A
N855       Mn881   2.313       .  S
N856        C861   1.373       .  A
N857        N858   1.345       .  A
N857       Mn859   2.342   1_565  S
N858        C860   1.378       .  A
Mn859      Cl883   2.602       .  S
C860        C886   1.623       .  S
N862        N863   1.329       .  A
N862        N868   1.323       .  A
N862       Mn870   2.267   1_465  S
N863        C871   1.365       .  A
N864        N866   1.321       .  A
N864        N865   1.337       .  A
N864       Mn882   2.290       .  S
N865        C872   1.370       .  A
N866        N867   1.331       .  A
N866       Mn870   2.253   1_455  S
N867        C872   1.361       .  A
N868        N869   1.326       .  A
N868       Mn882   2.238   1_565  S
N869        C871   1.357       .  A
Mn870      Cl883   2.605       .  S
C871        C888   1.564       .  S
C872        C926   1.586       .  S
N873        N874   1.336       .  A
N873        N879   1.325       .  A
N873       Mn881   2.283   1_455  S
N874        C884   1.367       .  A
N875        N876   1.329       .  A
N875        N877   1.322       .  A
N875       Mn882   2.251   1_565  S
N876        C885   1.355       .  A
N877        N878   1.333       .  A
N877       Mn881   2.291   1_465  S
N878        C885   1.369       .  A
N879        N880   1.327       .  A
N879       Mn882   2.259       .  S
N880        C884   1.361       .  A
Mn881      Cl883   2.608       .  S
Mn882      Cl883   2.589   1_455  S
C884        C925   1.588       .  S
C885        C887   1.577       .  S
C886       C1080   1.579       .  S
C886       C1130   1.583       .  S
C886       C1163   1.597       .  S
C887       C1093   1.596       .  S
C887       C1153   1.581       .  S
C887       C1703   1.592       .  S
C888       C1073   1.550       .  S
C888       C1103   1.578       .  S
C888       C1293   1.588       .  S
C889       C1060   1.587       .  S
C889       C1123   1.580       .  S
C889       C1460   1.582       .  S
C890       C1030   1.583       .  S
C890       C1040   1.576       .  S
C890       C1050   1.566       .  S
N891        C896   1.350       .  A
N891        C895   1.346       .  A
N891        H923   1.045       .  S
N892        C899   1.341       .  A
N892        C900   1.348       .  A
N893        C898   1.343       .  A
N893        C897   1.337       .  A
N893        H924   1.044       .  S
N894        C901   1.348       .  A
N894        C902   1.350       .  A
C895        C903   1.387       .  A
C895        C911   1.407       .  A
C896        C912   1.409       .  A
C896        C904   1.388       .  A
C897        C905   1.387       .  A
C897        C914   1.400       .  A
C898        C913   1.408       .  A
C898        C906   1.389       .  A
C899        C911   1.412       .  A
C899        C907   1.388       .  A
C900        C914   1.418       .  A
C900        C908   1.387       .  A
C901        C909   1.387       .  A
C901        C912   1.425       .  A
C902        C910   1.390       .  A
C902        C913   1.433       .  A
C903        C904   1.375       .  A
C903        H915   1.082       .  S
C904        H916   1.083       .  S
C905        C906   1.379       .  A
C905        H917   1.082       .  S
C906        H918   1.082       .  S
C907        C908   1.389       .  A
C907        H919   1.082       .  S
C908        H920   1.082       .  S
C909        C910   1.403       .  A
C909        H921   1.082       .  S
C910        H922   1.082       .  S
C911       C1053   1.487       .  S
C912       C1083   1.505       .  S
C913       C1873   1.506       .  S
C914       C1773   1.496       .  S
C925       C1600   1.574       .  S
C925       C1660   1.568       .  S
C925       C1683   1.575       .  S
C926       C1300   1.581       .  S
C926       C1453   1.565       .  S
C926       C1593   1.583       .  S
N927        C932   1.337   1_655  A
N927        C931   1.339       .  A
N927        H959   1.040       .  S
N928        C935   1.338       .  A
N928        C936   1.340       .  A
N929        C934   1.337   1_655  A
N929        C933   1.336       .  A
N929        H960   1.046       .  S
N930        C937   1.344       .  A
N930        C938   1.338       .  A
C931        C939   1.378       .  A
C931        C947   1.392       .  A
C932        C948   1.413       .  A
C932        C940   1.395       .  A
C933        C941   1.390       .  A
C933        C950   1.400       .  A
C934        C949   1.383       .  A
C934        C942   1.381       .  A
C935        C947   1.423       .  A
C935        C943   1.392       .  A
C936        C950   1.418       .  A
C936        C944   1.387       .  A
C937        C945   1.389       .  A
C937        C948   1.425       .  A
C938        C946   1.390       .  A
C938        C949   1.421       .  A
C939        C940   1.378   1_655  A
C939        H951   1.082       .  S
C940        H952   1.080       .  S
C941        C942   1.380   1_655  A
C941        H953   1.082       .  S
C942        H954   1.082       .  S
C943        C944   1.406       .  A
C943        H955   1.082       .  S
C944        H956   1.082       .  S
C945        C946   1.401       .  A
C945        H957   1.081       .  S
C946        H958   1.082       .  S
C947       C1393   1.492       .  S
C948       C1370   1.521       .  S
C949       C1070   1.495       .  S
C950       C1033   1.503       .  S
N961        C966   1.346   1_545  A
N961        C965   1.340       .  A
N961        H993   1.046       .  S
N962        C969   1.331       .  A
N962        C970   1.345       .  A
N963        C968   1.335   1_545  A
N963        C967   1.332       .  A
N963        H994   1.043       .  S
N964        C971   1.336       .  A
N964        C972   1.342       .  A
C965        C973   1.384       .  A
C965        C981   1.397       .  A
C966        C982   1.402       .  A
C966        C974   1.385   1_565  A
C967        C975   1.385       .  A
C967        C984   1.393       .  A
C968        C983   1.397       .  A
C968        C976   1.392   1_565  A
C969        C981   1.414       .  A
C969        C977   1.389       .  A
C970        C984   1.426       .  A
C970        C978   1.391       .  A
C971        C979   1.394       .  A
C971        C982   1.428       .  A
C972        C980   1.386       .  A
C972        C983   1.419       .  A
C973        C974   1.377       .  A
C973        H985   1.083       .  S
C974        H986   1.080       .  S
C975        C976   1.375       .  A
C975        H987   1.082       .  S
C976        H988   1.082       .  S
C977        C978   1.408       .  A
C977        H989   1.082       .  S
C978        H990   1.080       .  S
C979        C980   1.407       .  A
C979        H991   1.082       .  S
C980        H992   1.082       .  S
C981       C1240   1.482       .  S
C982       C1183   1.507       .  S
C983       C1043   1.495       .  S
C984       C1063   1.515       .  S
N995       C1000   1.346       .  A
N995        C999   1.341       .  A
N995       H1027   1.042       .  S
N996       C1003   1.337       .  A
N996       C1004   1.342       .  A
N997       C1002   1.346       .  A
N997       C1001   1.341       .  A
N997       H1028   1.043       .  S
N998       C1005   1.346       .  A
N998       C1006   1.346       .  A
C999       C1007   1.387       .  A
C999       C1015   1.408       .  A
C1000      C1016   1.393   1_554  A
C1000      C1008   1.381       .  A
C1001      C1009   1.379       .  A
C1001      C1018   1.405       .  A
C1002      C1017   1.389   1_554  A
C1002      C1010   1.379       .  A
C1003      C1015   1.406       .  A
C1003      C1011   1.388       .  A
C1004      C1018   1.406       .  A
C1004      C1012   1.385       .  A
C1005      C1013   1.387       .  A
C1005      C1016   1.414       .  A
C1006      C1014   1.387       .  A
C1006      C1017   1.412       .  A
C1007      C1008   1.373       .  A
C1007      H1019   1.073       .  S
C1008      H1020   1.082       .  S
C1009      C1010   1.372       .  A
C1009      H1021   1.070       .  S
C1010      H1022   1.082       .  S
C1011      C1012   1.396       .  A
C1011      H1023   1.082       .  S
C1012      H1024   1.082       .  S
C1013      C1014   1.396       .  A
C1013      H1025   1.082       .  S
C1014      H1026   1.082       .  S
C1015      C1343   1.472       .  S
C1016      C1383   1.487       .  S
C1017      C1193   1.488       .  S
C1018      C1223   1.485       .  S
C1029      C1030   1.423       .  A
C1029      C1034   1.397       .  A
C1029      F1036   1.357       .  S
C1030      C1031   1.436       .  A
C1031      C1032   1.411       .  A
C1031      F1038   1.344       .  S
C1032      C1033   1.400       .  A
C1032      F1037   1.358       .  S
C1033      C1034   1.408       .  A
C1034      F1035   1.359       .  S
C1039      C1040   1.405       .  A
C1039      C1044   1.420       .  A
C1039      F1046   1.358       .  S
C1040      C1041   1.424       .  A
C1041      C1042   1.396       .  A
C1041      F1048   1.357       .  S
C1042      C1043   1.404       .  A
C1042      F1047   1.359       .  S
C1043      C1044   1.419       .  A
C1044      F1045   1.357       .  S
C1049      C1050   1.436       .  A
C1049      C1054   1.384       .  A
C1049      F1056   1.354       .  S
C1050      C1051   1.404       .  A
C1051      C1052   1.397       .  A
C1051      F1058   1.355       .  S
C1052      C1053   1.413       .  A
C1052      F1057   1.345       .  S
C1053      C1054   1.388       .  A
C1054      F1055   1.358       .  S
C1059      C1060   1.412       .  A
C1059      C1064   1.380       .  A
C1059      F1066   1.354       .  S
C1060      C1061   1.436       .  A
C1061      C1062   1.417       .  A
C1061      F1068   1.346       .  S
C1062      C1063   1.407       .  A
C1062      F1067   1.354       .  S
C1063      C1064   1.421       .  A
C1064      F1065   1.361       .  S
C1069      C1070   1.430       .  A
C1069      C1074   1.393       .  A
C1069      F1076   1.354       .  S
C1070      C1071   1.396       .  A
C1071      C1072   1.384       .  A
C1071      F1078   1.357       .  S
C1072      C1073   1.427       .  A
C1072      F1077   1.358       .  S
C1073      C1074   1.401       .  A
C1074      F1075   1.357       .  S
C1079      C1080   1.435       .  A
C1079      C1084   1.414       .  A
C1079      F1086   1.354       .  S
C1080      C1081   1.416       .  A
C1081      C1082   1.406       .  A
C1081      F1088   1.358       .  S
C1082      C1083   1.407       .  A
C1082      F1087   1.354       .  S
C1083      C1084   1.400       .  A
C1084      F1085   1.357       .  S
C1089      C1090   1.403       .  A
C1089      C1094   1.396       .  A
C1089      F1096   1.355       .  S
C1090      C1091   1.422       .  A
C1091      C1092   1.412       .  A
C1091      F1098   1.358       .  S
C1092      C1093   1.417       .  A
C1092      F1097   1.350       .  S
C1093      C1094   1.436       .  A
C1094      F1095   1.360       .  S
C1099      C1100   1.412       .  A
C1099      C1104   1.411       .  A
C1099      F1106   1.357       .  S
C1100      C1101   1.399       .  A
C1101      C1102   1.394       .  A
C1101      F1108   1.358       .  S
C1102      C1103   1.429       .  A
C1102      F1107   1.359       .  S
C1103      C1104   1.409       .  A
C1104      F1105   1.359       .  S
C1109      C1110   1.401       .  A
C1109      C1114   1.405       .  A
C1109      F1116   1.358       .  S
C1110      C1111   1.406       .  A
C1111      C1112   1.410       .  A
C1111      F1118   1.357       .  S
C1112      C1113   1.430       .  A
C1112      F1117   1.352       .  S
C1113      C1114   1.438       .  A
C1114      F1115   1.349       .  S
C1119      C1120   1.418       .  A
C1119      C1124   1.400       .  A
C1119      F1126   1.357       .  S
C1120      C1121   1.391       .  A
C1121      C1122   1.389       .  A
C1121      F1128   1.358       .  S
C1122      C1123   1.431       .  A
C1122      F1127   1.356       .  S
C1123      C1124   1.413       .  A
C1124      F1125   1.354       .  S
C1129      C1130   1.438       .  A
C1129      C1134   1.404       .  A
C1129      F1136   1.351       .  S
C1130      C1131   1.415       .  A
C1131      C1132   1.399       .  A
C1131      F1138   1.354       .  S
C1132      C1133   1.418       .  A
C1132      F1137   1.347   1_565  S
C1133      C1134   1.398       .  A
C1134      F1135   1.359       .  S
C1139      C1140   1.435       .  A
C1139      C1144   1.390       .  A
C1139      F1146   1.354       .  S
C1140      C1141   1.414       .  A
C1141      C1142   1.390       .  A
C1141      F1148   1.354       .  S
C1142      C1143   1.401       .  A
C1142      F1147   1.358       .  S
C1143      C1144   1.385       .  A
C1144      F1145   1.358       .  S
C1149      C1150   1.400       .  A
C1149      C1154   1.390       .  A
C1149      F1156   1.358       .  S
C1150      C1151   1.409       .  A
C1151      C1152   1.409       .  A
C1151      F1158   1.358       .  S
C1152      C1153   1.425       .  A
C1152      F1157   1.358       .  S
C1153      C1154   1.398       .  A
C1154      F1155   1.351       .  S
C1159      C1160   1.392       .  A
C1159      C1164   1.405       .  A
C1159      F1166   1.357       .  S
C1160      C1161   1.412       .  A
C1161      C1162   1.406       .  A
C1161      F1168   1.346       .  S
C1162      C1163   1.412       .  A
C1162      F1167   1.353       .  S
C1163      C1164   1.448       .  A
C1164      F1165   1.354       .  S
C1169      C1170   1.437       .  A
C1169      C1174   1.388       .  A
C1169      F1176   1.356       .  S
C1170      C1171   1.411       .  A
C1171      C1172   1.405       .  A
C1171      F1178   1.354       .  S
C1172      C1173   1.416       .  A
C1172      F1177   1.357       .  S
C1173      C1174   1.389       .  A
C1174      F1175   1.357       .  S
C1179      C1180   1.434       .  A
C1179      C1184   1.391       .  A
C1179      F1186   1.352       .  S
C1180      C1181   1.413       .  A
C1181      C1182   1.408       .  A
C1181      F1188   1.357       .  S
C1182      C1183   1.419       .  A
C1182      F1187   1.353       .  S
C1183      C1184   1.398       .  A
C1184      F1185   1.356       .  S
C1189      C1190   1.420       .  A
C1189      C1194   1.405       .  A
C1189      F1196   1.358       .  S
C1190      C1191   1.406       .  A
C1191      C1192   1.395       .  A
C1191      F1198   1.358       .  S
C1192      C1193   1.416       .  A
C1192      F1197   1.356       .  S
C1193      C1194   1.401       .  A
C1194      F1195   1.357       .  S
C1199      C1200   1.419       .  A
C1199      C1204   1.406       .  A
C1199      F1206   1.355       .  S
C1200      C1201   1.445       .  A
C1201      C1202   1.398       .  A
C1201      F1208   1.350       .  S
C1202      C1203   1.385       .  A
C1202      F1207   1.358       .  S
C1203      C1204   1.403       .  A
C1204      F1205   1.358       .  S
C1209      C1210   1.397       .  A
C1209      C1214   1.398       .  A
C1209      F1216   1.354       .  S
C1210      C1211   1.425       .  A
C1211      C1212   1.407       .  A
C1211      F1218   1.357       .  S
C1212      C1213   1.407       .  A
C1212      F1217   1.350       .  S
C1213      C1214   1.434       .  A
C1214      F1215   1.342       .  S
C1219      C1220   1.441       .  A
C1219      C1224   1.388       .  A
C1219      F1226   1.351       .  S
C1220      C1221   1.419       .  A
C1221      C1222   1.413       .  A
C1221      F1228   1.350       .  S
C1222      C1223   1.411       .  A
C1222      F1227   1.357       .  S
C1223      C1224   1.383       .  A
C1224      F1225   1.360       .  S
C1229      C1230   1.415       .  A
C1229      C1234   1.396       .  A
C1229      F1236   1.358       .  S
C1230      C1231   1.407       .  A
C1231      C1232   1.404       .  A
C1231      F1238   1.359       .  S
C1232      C1233   1.413       .  A
C1232      F1237   1.358       .  S
C1233      C1234   1.396       .  A
C1234      F1235   1.356       .  S
C1239      C1240   1.417       .  A
C1239      C1244   1.398       .  A
C1239      F1246   1.359       .  S
C1240      C1241   1.388       .  A
C1241      C1242   1.391       .  A
C1241      F1248   1.358       .  S
C1242      C1243   1.437       .  A
C1242      F1247   1.356       .  S
C1243      C1244   1.409       .  A
C1244      F1245   1.351       .  S
C1249      C1250   1.399       .  A
C1249      C1254   1.394       .  A
C1249      F1256   1.359       .  S
C1250      C1251   1.418       .  A
C1251      C1252   1.421       .  A
C1251      F1258   1.357       .  S
C1252      C1253   1.411       .  A
C1252      F1257   1.358       .  S
C1253      C1254   1.427       .  A
C1254      F1255   1.359       .  S
C1259      C1260   1.412       .  A
C1259      C1264   1.405       .  A
C1259      F1266   1.357       .  S
C1260      C1261   1.413       .  A
C1261      C1262   1.370       .  A
C1261      F1268   1.359       .  S
C1262      C1263   1.406       .  A
C1262      F1267   1.360       .  S
C1263      C1264   1.403       .  A
C1264      F1265   1.358       .  S
C1269      C1270   1.409       .  A
C1269      C1274   1.415       .  A
C1269      F1276   1.357       .  S
C1270      C1271   1.377       .  A
C1271      C1272   1.377       .  A
C1271      F1278   1.360       .  S
C1272      C1273   1.442       .  A
C1272      F1277   1.354       .  S
C1273      C1274   1.430       .  A
C1274      F1275   1.347       .  S
C1279      C1280   1.392       .  A
C1279      C1284   1.400       .  A
C1279      F1286   1.355       .  S
C1280      C1281   1.424       .  A
C1281      C1282   1.405       .  A
C1281      F1288   1.358       .  S
C1282      C1283   1.410       .  A
C1282      F1287   1.353       .  S
C1283      C1284   1.440       .  A
C1284      F1285   1.353       .  S
C1289      C1290   1.404       .  A
C1289      C1294   1.401       .  A
C1289      F1296   1.358       .  S
C1290      C1291   1.401       .  A
C1291      C1292   1.400       .  A
C1291      F1298   1.356       .  S
C1292      C1293   1.432       .  A
C1292      F1297   1.357       .  S
C1293      C1294   1.427       .  A
C1294      F1295   1.344       .  S
C1299      C1300   1.442       .  A
C1299      C1304   1.396       .  A
C1299      F1306   1.353       .  S
C1300      C1301   1.408       .  A
C1301      C1302   1.404       .  A
C1301      F1308   1.359       .  S
C1302      C1303   1.415       .  A
C1302      F1307   1.351       .  S
C1303      C1304   1.386       .  A
C1304      F1305   1.359       .  S
C1309      C1310   1.431       .  A
C1309      C1314   1.407       .  A
C1309      F1316   1.345       .  S
C1310      C1311   1.431       .  A
C1311      C1312   1.398       .  A
C1311      F1318   1.356       .  S
C1312      C1313   1.397       .  A
C1312      F1317   1.357       .  S
C1313      C1314   1.404       .  A
C1314      F1315   1.358       .  S
C1319      C1320   1.415       .  A
C1319      C1324   1.405       .  A
C1319      F1326   1.356       .  S
C1320      C1321   1.442       .  A
C1321      C1322   1.394       .  A
C1321      F1328   1.357       .  S
C1322      C1323   1.389       .  A
C1322      F1327   1.358       .  S
C1323      C1324   1.418       .  A
C1324      F1325   1.358       .  S
C1329      C1330   1.444       .  A
C1329      C1334   1.402       .  A
C1329      F1336   1.352       .  S
C1330      C1331   1.416       .  A
C1331      C1332   1.409       .  A
C1331      F1338   1.350       .  S
C1332      C1333   1.415       .  A
C1332      F1337   1.357       .  S
C1333      C1334   1.392       .  A
C1334      F1335   1.357       .  S
C1339      C1340   1.415       .  A
C1339      C1344   1.398       .  A
C1339      F1346   1.354       .  S
C1340      C1341   1.439       .  A
C1341      C1342   1.388       .  A
C1341      F1348   1.359       .  S
C1342      C1343   1.386       .  A
C1342      F1347   1.358       .  S
C1343      C1344   1.408       .  A
C1344      F1345   1.356       .  S
C1349      C1350   1.416       .  A
C1349      C1354   1.405       .  A
C1349      F1356   1.351       .  S
C1350      C1351   1.399       .  A
C1351      C1352   1.396       .  A
C1351      F1358   1.356       .  S
C1352      C1353   1.419       .  A
C1352      F1357   1.358       .  S
C1353      C1354   1.410       .  A
C1354      F1355   1.357       .  S
C1359      C1360   1.406       .  A
C1359      C1364   1.400       .  A
C1359      F1366   1.358       .  S
C1360      C1361   1.443       .  A
C1361      C1362   1.403       .  A
C1361      F1368   1.355       .  S
C1362      C1363   1.392       .  A
C1362      F1367   1.357       .  S
C1363      C1364   1.415       .  A
C1364      F1365   1.343       .  S
C1369      C1370   1.402       .  A
C1369      C1374   1.403       .  A
C1369      F1376   1.354       .  S
C1370      C1371   1.419       .  A
C1371      C1372   1.405       .  A
C1371      F1378   1.352   1_455  S
C1372      C1373   1.419       .  A
C1372      F1377   1.353       .  S
C1373      C1374   1.435       .  A
C1374      F1375   1.355       .  S
C1379      C1380   1.407       .  A
C1379      C1384   1.402       .  A
C1379      F1386   1.358       .  S
C1380      C1381   1.424       .  A
C1381      C1382   1.404       .  A
C1381      F1388   1.358       .  S
C1382      C1383   1.401       .  A
C1382      F1387   1.357       .  S
C1383      C1384   1.412       .  A
C1384      F1385   1.357       .  S
C1389      C1390   1.411       .  A
C1389      C1394   1.401       .  A
C1389      F1396   1.356       .  S
C1390      C1391   1.436       .  A
C1391      C1392   1.391       .  A
C1391      F1398   1.354       .  S
C1392      C1393   1.395       .  A
C1392      F1397   1.356       .  S
C1393      C1394   1.417       .  A
C1394      F1395   1.359       .  S
C1399      C1400   1.424       .  A
C1399      C1404   1.406       .  A
C1399      F1406   1.355       .  S
C1400      C1401   1.442       .  A
C1401      C1402   1.403       .  A
C1401      F1408   1.351       .  S
C1402      C1403   1.391       .  A
C1402      F1407   1.358       .  S
C1403      C1404   1.401       .  A
C1404      F1405   1.358       .  S
C1409      C1410   1.396       .  A
C1409      C1414   1.410       .  A
C1409      F1416   1.352       .  S
C1410      C1411   1.415       .  A
C1411      C1412   1.413       .  A
C1411      F1418   1.357       .  S
C1412      C1413   1.423       .  A
C1412      F1417   1.356       .  S
C1413      C1414   1.428       .  A
C1414      F1415   1.346       .  S
C1419      C1420   1.416       .  A
C1419      C1424   1.417       .  A
C1419      F1426   1.357       .  S
C1420      C1421   1.399       .  A
C1421      C1422   1.398       .  A
C1421      F1428   1.356       .  S
C1422      C1423   1.415       .  A
C1422      F1427   1.356       .  S
C1423      C1424   1.408       .  A
C1424      F1425   1.357       .  S
C1429      C1430   1.410       .  A
C1429      C1434   1.415       .  A
C1429      F1436   1.357       .  S
C1430      C1431   1.417       .  A
C1431      C1432   1.403       .  A
C1431      F1438   1.359       .  S
C1432      C1433   1.405       .  A
C1432      F1437   1.353       .  S
C1433      C1434   1.430       .  A
C1434      F1435   1.358       .  S
C1439      C1440   1.428       .  A
C1439      C1444   1.415       .  A
C1439      F1446   1.348       .  S
C1440      C1441   1.416       .  A
C1441      C1442   1.389       .  A
C1441      F1448   1.360       .  S
C1442      C1443   1.427       .  A
C1442      F1447   1.360       .  S
C1443      C1444   1.411       .  A
C1444      F1445   1.353       .  S
C1449      C1450   1.418       .  A
C1449      C1454   1.396       .  A
C1449      F1456   1.353       .  S
C1450      C1451   1.389       .  A
C1451      C1452   1.388       .  A
C1451      F1458   1.358       .  S
C1452      C1453   1.439       .  A
C1452      F1457   1.355       .  S
C1453      C1454   1.412       .  A
C1454      F1455   1.353       .  S
C1459      C1460   1.405       .  A
C1459      C1464   1.416       .  A
C1459      F1466   1.356       .  S
C1460      C1461   1.430       .  A
C1461      C1462   1.400       .  A
C1461      F1468   1.355       .  S
C1462      C1463   1.399       .  A
C1462      F1467   1.359       .  S
C1463      C1464   1.415       .  A
C1464      F1465   1.358       .  S
C1469      C1470   1.407       .  A
C1469      C1474   1.406       .  A
C1469      F1476   1.356       .  S
C1470      C1471   1.394       .  A
C1471      C1472   1.405       .  A
C1471      F1478   1.358       .  S
C1472      C1473   1.437       .  A
C1472      F1477   1.346       .  S
C1473      C1474   1.425       .  A
C1474      F1475   1.358       .  S
C1479      C1480   1.385       .  A
C1479      C1484   1.392       .  A
C1479      F1486   1.358       .  S
C1480      C1481   1.412       .  A
C1481      C1482   1.405       .  A
C1481      F1488   1.352       .  S
C1482      C1483   1.413       .  A
C1482      F1487   1.349       .  S
C1483      C1484   1.442       .  A
C1484      F1485   1.353       .  S
C1489      C1490   1.404       .  A
C1489      C1494   1.399       .  A
C1489      F1496   1.359       .  S
C1490      C1491   1.399       .  A
C1491      C1492   1.407       .  A
C1491      F1498   1.357       .  S
C1492      C1493   1.441       .  A
C1492      F1497   1.348       .  S
C1493      C1494   1.426       .  A
C1494      F1495   1.348       .  S
C1499      C1500   1.404       .  A
C1499      C1504   1.408       .  A
C1499      F1506   1.357       .  S
C1500      C1501   1.409       .  A
C1501      C1502   1.396       .  A
C1501      F1508   1.359       .  S
C1502      C1503   1.422       .  A
C1502      F1507   1.352       .  S
C1503      C1504   1.434       .  A
C1504      F1505   1.344       .  S
C1509      C1510   1.393       .  A
C1509      C1514   1.388       .  A
C1509      F1516   1.359       .  S
C1510      C1511   1.415       .  A
C1511      C1512   1.414       .  A
C1511      F1518   1.357       .  S
C1512      C1513   1.404       .  A
C1512      F1517   1.357       .  S
C1513      C1514   1.426       .  A
C1514      F1515   1.356       .  S
C1519      C1520   1.404       .  A
C1519      C1524   1.400       .  A
C1519      F1526   1.357       .  S
C1520      C1521   1.440       .  A
C1521      C1522   1.392       .  A
C1521      F1528   1.356       .  S
C1522      C1523   1.392       .  A
C1522      F1527   1.357       .  S
C1523      C1524   1.428       .  A
C1524      F1525   1.352       .  S
C1529      C1530   1.408       .  A
C1529      C1534   1.404       .  A
C1529      F1536   1.358       .  S
C1530      C1531   1.407       .  A
C1531      C1532   1.391       .  A
C1531      F1538   1.358       .  S
C1532      C1533   1.409       .  A
C1532      F1537   1.358       .  S
C1533      C1534   1.416       .  A
C1534      F1535   1.359       .  S
C1539      C1540   1.418       .  A
C1539      C1544   1.400       .  A
C1539      F1546   1.345       .  S
C1540      C1541   1.389       .  A
C1541      C1542   1.397       .  A
C1541      F1548   1.358       .  S
C1542      C1543   1.445       .  A
C1542      F1547   1.354       .  S
C1543      C1544   1.405       .  A
C1544      F1545   1.357       .  S
C1549      C1550   1.434       .  A
C1549      C1554   1.395       .  A
C1549      F1556   1.358       .  S
C1550      C1551   1.393       .  A
C1551      C1552   1.401       .  A
C1551      F1558   1.357       .  S
C1552      C1553   1.435       .  A
C1552      F1557   1.341       .  S
C1553      C1554   1.398       .  A
C1554      F1555   1.357       .  S
C1559      C1560   1.414       .  A
C1559      C1564   1.413       .  A
C1559      F1566   1.357       .  S
C1560      C1561   1.402       .  A
C1561      C1562   1.403       .  A
C1561      F1568   1.355       .  S
C1562      C1563   1.414       .  A
C1562      F1567   1.353       .  S
C1563      C1564   1.419       .  A
C1564      F1565   1.358       .  S
C1569      C1570   1.427       .  A
C1569      C1574   1.400       .  A
C1569      F1576   1.350       .  S
C1570      C1571   1.417       .  A
C1571      C1572   1.400       .  A
C1571      F1578   1.357       .  S
C1572      C1573   1.418       .  A
C1572      F1577   1.359       .  S
C1573      C1574   1.406       .  A
C1574      F1575   1.356       .  S
C1579      C1580   1.418       .  A
C1579      C1584   1.415       .  A
C1579      F1586   1.358       .  S
C1580      C1581   1.395       .  A
C1581      C1582   1.397       .  A
C1581      F1588   1.357       .  S
C1582      C1583   1.443       .  A
C1582      F1587   1.349       .  S
C1583      C1584   1.419       .  A
C1584      F1585   1.357       .  S
C1589      C1590   1.395       .  A
C1589      C1594   1.404       .  A
C1589      F1596   1.358       .  S
C1590      C1591   1.401       .  A
C1591      C1592   1.402       .  A
C1591      F1598   1.355       .  S
C1592      C1593   1.424       .  A
C1592      F1597   1.359       .  S
C1593      C1594   1.436       .  A
C1594      F1595   1.346       .  S
C1599      C1600   1.420       .  A
C1599      C1604   1.393       .  A
C1599      F1606   1.359       .  S
C1600      C1601   1.437       .  A
C1601      C1602   1.403       .  A
C1601      F1608   1.350       .  S
C1602      C1603   1.393       .  A
C1602      F1607   1.358       .  S
C1603      C1604   1.399       .  A
C1604      F1605   1.349       .  S
C1609      C1610   1.415       .  A
C1609      C1614   1.422       .  A
C1609      F1616   1.357       .  S
C1610      C1611   1.402       .  A
C1611      C1612   1.395       .  A
C1611      F1618   1.358       .  S
C1612      C1613   1.424       .  A
C1612      F1617   1.358       .  S
C1613      C1614   1.419       .  A
C1614      F1615   1.357       .  S
C1619      C1620   1.412       .  A
C1619      C1624   1.407       .  A
C1619      F1626   1.356       .  S
C1620      C1621   1.390       .  A
C1621      C1622   1.400       .  A
C1621      F1628   1.358       .  S
C1622      C1623   1.441       .  A
C1622      F1627   1.351       .  S
C1623      C1624   1.417       .  A
C1624      F1625   1.352       .  S
C1629      C1630   1.401       .  A
C1629      C1634   1.398       .  A
C1629      F1636   1.357       .  S
C1630      C1631   1.432       .  A
C1631      C1632   1.399       .  A
C1631      F1638   1.345       .  S
C1632      C1633   1.400       .  A
C1632      F1637   1.355       .  S
C1633      C1634   1.434       .  A
C1634      F1635   1.358       .  S
C1639      C1640   1.411       .  A
C1639      C1644   1.412       .  A
C1639      F1646   1.357       .  S
C1640      C1641   1.418       .  A
C1641      C1642   1.398       .  A
C1641      F1648   1.359       .  S
C1642      C1643   1.407       .  A
C1642      F1647   1.359       .  S
C1643      C1644   1.412       .  A
C1644      F1645   1.356       .  S
C1649      C1650   1.420       .  A
C1649      C1654   1.414       .  A
C1649      F1656   1.354       .  S
C1650      C1651   1.388       .  A
C1651      C1652   1.396       .  A
C1651      F1658   1.357       .  S
C1652      C1653   1.442       .  A
C1652      F1657   1.356       .  S
C1653      C1654   1.403       .  A
C1654      F1655   1.354       .  S
C1659      C1660   1.439       .  A
C1659      C1664   1.398       .  A
C1659      F1666   1.354       .  S
C1660      C1661   1.409       .  A
C1661      C1662   1.394       .  A
C1661      F1668   1.353       .  S
C1662      C1663   1.417       .  A
C1662      F1667   1.349       .  S
C1663      C1664   1.393       .  A
C1664      F1665   1.358       .  S
C1669      C1670   1.395       .  A
C1669      C1674   1.389       .  A
C1669      F1676   1.359       .  S
C1670      C1671   1.415       .  A
C1671      C1672   1.415       .  A
C1671      F1678   1.357       .  S
C1672      C1673   1.408       .  A
C1672      F1677   1.356       .  S
C1673      C1674   1.428       .  A
C1674      F1675   1.359       .  S
C1679      C1680   1.413       .  A
C1679      C1684   1.404       .  A
C1679      F1686   1.351       .  S
C1680      C1681   1.395       .  A
C1681      C1682   1.406       .  A
C1681      F1688   1.358       .  S
C1682      C1683   1.438       .  A
C1682      F1687   1.355       .  S
C1683      C1684   1.412       .  A
C1684      F1685   1.358       .  S
C1689      C1690   1.412       .  A
C1689      C1694   1.402       .  A
C1689      F1696   1.358       .  S
C1690      C1691   1.416       .  A
C1691      C1692   1.401       .  A
C1691      F1698   1.358       .  S
C1692      C1693   1.405       .  A
C1692      F1697   1.358       .  S
C1693      C1694   1.410       .  A
C1694      F1695   1.358       .  S
C1699      C1700   1.406       .  A
C1699      C1704   1.398       .  A
C1699      F1706   1.359       .  S
C1700      C1701   1.401       .  A
C1701      C1702   1.398       .  A
C1701      F1708   1.358       .  S
C1702      C1703   1.414       .  A
C1702      F1707   1.352       .  S
C1703      C1704   1.423       .  A
C1704      F1705   1.357       .  S
C1709      C1710   1.402       .  A
C1709      C1714   1.405       .  A
C1709      F1716   1.358       .  S
C1710      C1711   1.398       .  A
C1711      C1712   1.391       .  A
C1711      F1718   1.359       .  S
C1712      C1713   1.428       .  A
C1712      F1717   1.352       .  S
C1713      C1714   1.432       .  A
C1714      F1715   1.346       .  S
C1719      C1720   1.411       .  A
C1719      C1724   1.410       .  A
C1719      F1726   1.354       .  S
C1720      C1721   1.400       .  A
C1721      C1722   1.389       .  A
C1721      F1728   1.357       .  S
C1722      C1723   1.437       .  A
C1722      F1727   1.351       .  S
C1723      C1724   1.424       .  A
C1724      F1725   1.350       .  S
C1729      C1730   1.402       .  A
C1729      C1734   1.390       .  A
C1729      F1736   1.359       .  S
C1730      C1731   1.407       .  A
C1731      C1732   1.406       .  A
C1731      F1738   1.357       .  S
C1732      C1733   1.410       .  A
C1732      F1737   1.358       .  S
C1733      C1734   1.418       .  A
C1734      F1735   1.359       .  S
C1739      C1740   1.415       .  A
C1739      C1744   1.396       .  A
C1739      F1746   1.355       .  S
C1740      C1741   1.429       .  A
C1741      C1742   1.382       .  A
C1741      F1748   1.359       .  S
C1742      C1743   1.390       .  A
C1742      F1747   1.358       .  S
C1743      C1744   1.413       .  A
C1744      F1745   1.358       .  S
C1749      C1750   1.408       .  A
C1749      C1754   1.394       .  A
C1749      F1756   1.352       .  S
C1750      C1751   1.436       .  A
C1751      C1752   1.393       .  A
C1751      F1758   1.358       .  S
C1752      C1753   1.392       .  A
C1752      F1757   1.357       .  S
C1753      C1754   1.419       .  A
C1754      F1755   1.357       .  S
C1759      C1760   1.397       .  A
C1759      C1764   1.410       .  A
C1759      F1766   1.359       .  S
C1760      C1761   1.425       .  A
C1761      C1762   1.401       .  A
C1761      F1768   1.359       .  S
C1762      C1763   1.409       .  A
C1762      F1767   1.357       .  S
C1763      C1764   1.416       .  A
C1764      F1765   1.355       .  S
C1769      C1770   1.435       .  A
C1769      C1774   1.401       .  A
C1769      F1776   1.343       .  S
C1770      C1771   1.428       .  A
C1771      C1772   1.397       .  A
C1771      F1778   1.354       .  S
C1772      C1773   1.403       .  A
C1772      F1777   1.358       .  S
C1773      C1774   1.400       .  A
C1774      F1775   1.359       .  S
C1779      C1780   1.401       .  A
C1779      C1784   1.385       .  A
C1779      F1786   1.355       .  S
C1780      C1781   1.434       .  A
C1781      C1782   1.416       .  A
C1781      F1788   1.354       .  S
C1782      C1783   1.405       .  A
C1782      F1787   1.356       .  S
C1783      C1784   1.421       .  A
C1784      F1785   1.359       .  S
C1789      C1790   1.410       .  A
C1789      C1794   1.404       .  A
C1789      F1796   1.358       .  S
C1790      C1791   1.420       .  A
C1791      C1792   1.397       .  A
C1791      F1798   1.358       .  S
C1792      C1793   1.400       .  A
C1792      F1797   1.358       .  S
C1793      C1794   1.409       .  A
C1794      F1795   1.358       .  S
C1799      C1800   1.403       .  A
C1799      C1804   1.404       .  A
C1799      F1806   1.354       .  S
C1800      C1801   1.438       .  A
C1801      C1802   1.400       .  A
C1801      F1808   1.346       .  S
C1802      C1803   1.401       .  A
C1802      F1807   1.349       .  S
C1803      C1804   1.435       .  A
C1804      F1805   1.357       .  S
C1809      C1810   1.423       .  A
C1809      C1814   1.400       .  A
C1809      F1816   1.358       .  S
C1810      C1811   1.443       .  A
C1811      C1812   1.393       .  A
C1811      F1818   1.345       .  S
C1812      C1813   1.384       .  A
C1812      F1817   1.359       .  S
C1813      C1814   1.403       .  A
C1814      F1815   1.358       .  S
C1819      C1820   1.431       .  A
C1819      C1824   1.406       .  A
C1819      F1826   1.358       .  S
C1820      C1821   1.405       .  A
C1821      C1822   1.408       .  A
C1821      F1828   1.358       .  S
C1822      C1823   1.414       .  A
C1822      F1827   1.353       .  S
C1823      C1824   1.398       .  A
C1824      F1825   1.357       .  S
C1829      C1830   1.439       .  A
C1829      C1834   1.391       .  A
C1829      F1836   1.353       .  S
C1830      C1831   1.412       .  A
C1831      C1832   1.423       .  A
C1831      F1838   1.355       .  S
C1832      C1833   1.421       .  A
C1832      F1837   1.357       .  S
C1833      C1834   1.391       .  A
C1834      F1835   1.359       .  S
C1839      C1840   1.445       .  A
C1839      C1844   1.397       .  A
C1839      F1846   1.347       .  S
C1840      C1841   1.421       .  A
C1841      C1842   1.397       .  A
C1841      F1848   1.356       .  S
C1842      C1843   1.403       .  A
C1842      F1847   1.357       .  S
C1843      C1844   1.384       .  A
C1844      F1845   1.359       .  S
C1849      C1850   1.413       .  A
C1849      C1854   1.413       .  A
C1849      F1856   1.353       .  S
C1850      C1851   1.439       .  A
C1851      C1852   1.398       .  A
C1851      F1858   1.353       .  S
C1852      C1853   1.388       .  A
C1852      F1857   1.358       .  S
C1853      C1854   1.417       .  A
C1854      F1855   1.355       .  S
C1859      C1860   1.422       .  A
C1859      C1864   1.405       .  A
C1859      F1866   1.353       .  S
C1860      C1861   1.403       .  A
C1861      C1862   1.403       .  A
C1861      F1868   1.359       .  S
C1862      C1863   1.418       .  A
C1862      F1867   1.354       .  S
C1863      C1864   1.399       .  A
C1864      F1865   1.357       .  S
C1869      C1870   1.443       .  A
C1869      C1874   1.405       .  A
C1869      F1876   1.343       .  S
C1870      C1871   1.428       .  A
C1871      C1872   1.408       .  A
C1871      F1878   1.354       .  S
C1872      C1873   1.409       .  A
C1872      F1877   1.358       .  S
C1873      C1874   1.397       .  A
C1874      F1875   1.359       .  S
C1879      C1880   1.432       .  A
C1879      C1884   1.387       .  A
C1879      F1886   1.357       .  S
C1880      C1881   1.404       .  A
C1881      C1882   1.383       .  A
C1881      F1888   1.354       .  S
C1882      C1883   1.415       .  A
C1882      F1887   1.349       .  S
C1883      C1884   1.391       .  A
C1884      F1885   1.358       .  S
C1889      C1890   1.413       .  A
C1889      C1894   1.414       .  A
C1889      F1896   1.357       .  S
C1890      C1891   1.403       .  A
C1891      C1892   1.393       .  A
C1891      F1898   1.359       .  S
C1892      C1893   1.422       .  A
C1892      F1897   1.359       .  S
C1893      C1894   1.409       .  A
C1894      F1895   1.358       .  S
C1899      C1900   1.408       .  A
C1899      C1904   1.410       .  A
C1899      F1906   1.358       .  S
C1900      C1901   1.438       .  A
C1901      C1902   1.386       .  A
C1901      F1908   1.355       .  S
C1902      C1903   1.385       .  A
C1902      F1907   1.359       .  S
C1903      C1904   1.413       .  A
C1904      F1905   1.355       .  S
C1909      C1910   1.402       .  A
C1909      C1914   1.411       .  A
C1909      F1916   1.354       .  S
C1910      C1911   1.441       .  A
C1911      C1912   1.387       .  A
C1911      F1918   1.355       .  S
C1912      C1913   1.386       .  A
C1912      F1917   1.358       .  S
C1913      C1914   1.422       .  A
C1914      F1915   1.351       .  S
C1919      C1920   1.438       .  A
C1919      C1924   1.394       .  A
C1919      F1926   1.356       .  S
C1920      C1921   1.430       .  A
C1921      C1922   1.406       .  A
C1921      F1928   1.347       .  S
C1922      C1923   1.400       .  A
C1922      F1927   1.358       .  S
C1923      C1924   1.393       .  A
C1924      F1925   1.359       .  S
C1929      C1930   1.425       .  A
C1929      C1934   1.403       .  A
C1929      F1936   1.358       .  S
C1930      C1931   1.436       .  A
C1931      C1932   1.401       .  A
C1931      F1938   1.348       .  S
C1932      C1933   1.393       .  A
C1932      F1937   1.358       .  S
C1933      C1934   1.403       .  A
C1934      F1935   1.358       .  S
C1939      C1940   1.407       .  A
C1939      C1944   1.409       .  A
C1939      F1946   1.355       .  S
C1940      C1941   1.435       .  A
C1941      C1942   1.385       .  A
C1941      F1948   1.354       .  S
C1942      C1943   1.389       .  A
C1942      F1947   1.358       .  S
C1943      C1944   1.418       .  A
C1944      F1945   1.357       .  S
C1949      C1950   1.405       .  A
C1949      C1954   1.404       .  A
C1949      F1956   1.358       .  S
C1950      C1951   1.427       .  A
C1951      C1952   1.392       .  A
C1951      F1958   1.358       .  S
C1952      C1953   1.394       .  A
C1952      F1957   1.358       .  S
C1953      C1954   1.410       .  A
C1954      F1955   1.354       .  S
C1959      C1960   1.426       .  A
C1959      C1964   1.393       .  A
C1959      F1966   1.358       .  S
C1960      C1961   1.409       .  A
C1961      C1962   1.417       .  A
C1961      F1968   1.358       .  S
C1962      C1963   1.416       .  A
C1962      F1967   1.356       .  S
C1963      C1964   1.401       .  A
C1964      F1965   1.359       .  S
C1969      C1970   1.407       .  A
C1969      C1974   1.403       .  A
C1969      F1976   1.353       .  S
C1970      C1971   1.440       .  A
C1971      C1972   1.402       .  A
C1971      F1978   1.356       .  S
C1972      C1973   1.395       .  A
C1972      F1977   1.356       .  S
C1973      C1974   1.421       .  A
C1974      F1975   1.353       .  S
C1979      C1980   1.440       .  A
C1979      C1984   1.402       .  A
C1979      F1986   1.343       .  S
C1980      C1981   1.426       .  A
C1981      C1982   1.410       .  A
C1981      F1988   1.358       .  S
C1982      C1983   1.407       .  A
C1982      F1987   1.357       .  S
C1983      C1984   1.397       .  A
C1984      F1985   1.359       .  S
