geometry optimzed in LAMMPS
_audit_creation_date              2020-12-01 
_audit_creation_method            'lammps2cif' 
_symmetry_space_group_name_H-M    'P1' 
_symmetry_Int_Tables_number       1 
_symmetry_cell_setting            triclinic 
loop_ 
_symmetry_equiv_pos_as_xyz 
  x,y,z 
_cell_length_a                    46.02331287 
_cell_length_b                    46.004435538629885 
_cell_length_c                    33.73208976052625 
_cell_angle_alpha                 90.11560353621367 
_cell_angle_beta                  89.8627793389116 
_cell_angle_gamma                 125.02735576393856 
loop_ 
_atom_site_label 
_atom_site_type_symbol 
_atom_site_fract_x 
_atom_site_fract_y 
_atom_site_fract_z 
_atom_site_charge 
C1          C  0.53907192  0.84962487  0.00105385     0.79000
N2          N  0.53759230  0.86379027  0.30036859    -0.79300
C3          C  0.53458010  0.89138830  0.30060832     0.81500
N4          N  0.53380453  0.90559972  0.33548607    -0.79200
C5          C  0.53621765  0.89202845  0.03650226     0.81500
N6          N  0.53913730  0.86438042  0.03597632    -0.81000
C7          C  0.39098784  0.91736826  0.00041026     0.79000
N8          N  0.40865595  0.93198339  0.29936816    -0.79300
C9          C  0.44289849  0.96054725  0.29975872     0.81500
N10         N  0.45974583  0.97429132  0.33488199    -0.79200
C11         C  0.44253660  0.95948994  0.03621247     0.81500
N12         N  0.40812081  0.93086122  0.03548098    -0.81000
N13         N  0.64366700  0.05132086  0.21450529    -0.07300
N14         N  0.66498256  0.06982151  0.24428139    -0.59500
N15         N  0.63449596  0.01783195  0.12335877    -0.07000
N16         N  0.64793538  0.01233958  0.09189314    -0.61600
N17         N  0.64349650  0.05063299  0.12374754    -0.06600
N18         N  0.66367039  0.06835823  0.09300490    -0.59400
N19         N  0.63457102  0.01848481  0.21540569    -0.06300
N20         N  0.64905520  0.01378966  0.24635853    -0.61900
C21         C  0.66818667  0.04616767  0.26370645     0.94800
C22         C  0.66605983  0.04417109  0.07350256     0.94600
N23         N  0.52985899  0.93051633  0.12290327    -0.07500
N24         N  0.51403435  0.91015411  0.09155137    -0.60000
N25         N  0.56296265  0.94264745  0.21446874    -0.05600
N26         N  0.57029166  0.93006049  0.24493716    -0.61300
N27         N  0.52923076  0.93060842  0.21456377    -0.07500
N28         N  0.51286421  0.90981595  0.24549759    -0.60300
N29         N  0.56350507  0.94227294  0.12378198    -0.05300
N30         N  0.57126936  0.92984686  0.09335464    -0.61400
Mn31       Mn  0.59959489  0.97978234  0.16934532     1.18400
C32         C  0.54018002  0.90989543  0.07373987     0.96900
C33         C  0.53885816  0.90969750  0.26380324     0.97600
N34         N  0.60113091  0.08508220  0.12223464    -0.07600
N35         N  0.61715564  0.10605490  0.09121699    -0.63900
N36         N  0.56680095  0.07331892  0.21335133    -0.06400
N37         N  0.55878295  0.08610001  0.24315506    -0.64600
N38         N  0.60051763  0.08527494  0.21458331    -0.07100
N39         N  0.61604464  0.10607263  0.24582738    -0.64100
N40         N  0.56735773  0.07294831  0.12275701    -0.06000
N41         N  0.55974871  0.08571090  0.09272294    -0.64800
Mn42       Mn  0.62339134  0.06932872  0.16881144     1.10700
C43         C  0.59093474  0.10628200  0.07345201     0.98100
C44         C  0.58966092  0.10646866  0.26301469     0.98200
N45         N  0.48681625  0.96443331  0.21320316    -0.07100
N46         N  0.46621164  0.94610015  0.24341335    -0.62500
N47         N  0.49590034  0.99678243  0.12157573    -0.06400
N48         N  0.48139898  0.00117278  0.09036452    -0.59200
N49         N  0.48695121  0.96402075  0.12273328    -0.07700
N50         N  0.46576710  0.94526239  0.09302063    -0.62000
N51         N  0.49570933  0.99717829  0.21407157    -0.06700
N52         N  0.48171215  0.00201024  0.24554881    -0.59200
Mn53       Mn  0.50717997  0.94628613  0.16832352     1.20200
Mn54       Mn  0.53076769  0.03558322  0.16789477     1.10100
Cl55       Cl  0.56527119  0.00779035  0.16862169    -0.87200
C56         C  0.46330624  0.96977561  0.26323195     0.95200
C57         C  0.46245337  0.96864823  0.07322600     0.95000
C58         C  0.58282859  0.16157253  0.00219462     0.79000
N59         N  0.58535221  0.14911794  0.30056510    -0.79300
C60         C  0.59272895  0.12447360  0.30013320     0.81500
N61         N  0.59720145  0.11179927  0.00163668    -0.79200
C62         C  0.59433576  0.12460881  0.03662716     0.81500
N63         N  0.58680983  0.14915431  0.03679008    -0.81000
C64         C  0.73936266  0.09400895  0.00348900     0.79000
N65         N  0.72248197  0.08221218  0.30210834    -0.79300
C66         C  0.68766356  0.05456339  0.30091888     0.81500
N67         N  0.66942527  0.04016447  0.33527337    -0.79200
C68         C  0.68622934  0.05255102  0.03699538     0.81500
N69         N  0.72090666  0.07987695  0.03759942    -0.81000
N70         N  0.97682956  0.47874569  0.21080750    -0.07300
N71         N  0.95572943  0.46321819  0.24173813    -0.59500
N72         N  0.99032772  0.51230133  0.11910172    -0.07000
N73         N  0.97839005  0.52029773  0.08848429    -0.61600
N74         N  0.97683692  0.47817321  0.11924657    -0.06600
N75         N  0.95561712  0.46222303  0.08853162    -0.59400
N76         N  0.99015125  0.51284615  0.21027517    -0.06300
N77         N  0.97816080  0.52119877  0.24067991    -0.61900
C78         C  0.95668002  0.48997496  0.25978469     0.94800
C79         C  0.95678339  0.48883373  0.06991629     0.94600
N80         N  0.10021273  0.58963061  0.11903819    -0.07500
N81         N  0.11945047  0.61045869  0.08927168    -0.60000
N82         N  0.06781786  0.58268632  0.21047028    -0.05600
N83         N  0.06407905  0.59778769  0.24168905    -0.61300
N84         N  0.09999673  0.59005802  0.20958286    -0.07500
N85         N  0.11899238  0.61072662  0.23948349    -0.60300
N86         N  0.06800525  0.58219069  0.11794678    -0.05300
N87         N  0.06451945  0.59739174  0.08673099    -0.61400
Mn88       Mn  0.02855957  0.54829683  0.16442481     1.18400
C89         C  0.09699048  0.61513164  0.06947605     0.96900
C90         C  0.09638120  0.61531271  0.25916751     0.97600
N91         N  0.00802212  0.43318362  0.12002122    -0.07600
N92         N  0.98970266  0.41339135  0.08929345    -0.63900
N93         N  0.03976633  0.44048103  0.21145098    -0.06400
N94         N  0.04366956  0.42532782  0.24228365    -0.64600
N95         N  0.00750207  0.43285371  0.21077503    -0.07100
N96         N  0.98857111  0.41192220  0.24065543    -0.64100
N97         N  0.04026958  0.44076516  0.11948850    -0.06000
N98         N  0.04478536  0.42664853  0.08797602    -0.64800
Mn99       Mn  0.99113459  0.45469592  0.16528245     1.10700
C100        C  0.01297554  0.40969649  0.06968451     0.98100
C101        C  0.01139528  0.40735115  0.25980762     0.98200
N102        N  0.13060530  0.54401342  0.21135453    -0.07100
N103        N  0.15186605  0.55931576  0.24227829    -0.62500
N104        N  0.11751577  0.50956198  0.12014534    -0.06400
N105        N  0.12957430  0.50072269  0.09035762    -0.59200
N106        N  0.13084989  0.54362644  0.11899797    -0.07700
N107        N  0.15193622  0.55863976  0.08786116    -0.62000
N108        N  0.11706563  0.50987814  0.21075223    -0.06700
N109        N  0.12908125  0.50126163  0.24064358    -0.59200
Mn110      Mn  0.11656166  0.56788764  0.16474179     1.20200
Mn111      Mn  0.07905672  0.47447853  0.16551511     1.10100
Cl112      Cl  0.05382501  0.51138267  0.16504072    -0.87200
C113        C  0.15073473  0.53225366  0.25991190     0.95200
C114        C  0.15102750  0.53153012  0.07064377     0.95000
C115        C  0.20583622  0.52305988  0.99809039     0.79000
N116        N  0.19291055  0.52606416  0.03300078    -0.79300
C117        C  0.16860779  0.53388414  0.03346652     0.81500
N118        N  0.15644133  0.53795426  0.99880025    -0.79200
C119        C  0.16887645  0.53490840  0.29662212     0.81500
N120        N  0.19364380  0.52766478  0.29622219    -0.81000
C121        C  0.96445406  0.33522283  0.00039509     0.79000
N122        N  0.97605377  0.35301505  0.29856703    -0.79300
C123        C  0.00275128  0.38817668  0.29719808     0.81500
N124        N  0.01634874  0.40607903  0.99794479    -0.79200
C125        C  0.00391756  0.38931416  0.03329732     0.81500
N126        N  0.97775284  0.35423038  0.03434273    -0.81000
C127        C  0.89395121  0.48455555  0.99857439     0.79000
N128        N  0.90933950  0.48601960  0.29767614    -0.79300
C129        C  0.93896521  0.48632065  0.29722034     0.81500
N130        N  0.95353235  0.48535282  0.99794009    -0.79200
C131        C  0.93863898  0.48483090  0.03288009     0.81500
N132        N  0.90916196  0.48477494  0.03315973    -0.81000
C133        C  0.15157957  0.68636972  0.99738064     0.79000
N134        N  0.13606297  0.66932427  0.29596773    -0.79300
C135        C  0.10639961  0.63561623  0.29599039     0.81500
N136        N  0.09213533  0.61851678  0.99778604    -0.79200
C137        C  0.10712971  0.63553506  0.03261272     0.81500
N138        N  0.13704838  0.66921890  0.03222369    -0.81000
N139        N  0.51079417  0.42106950  0.12124504    -0.07300
N140        N  0.49490765  0.40026892  0.09006108    -0.59500
N141        N  0.54468117  0.43295034  0.21262739    -0.07000
N142        N  0.55222172  0.41989466  0.24244000    -0.61600
N143        N  0.51107682  0.42144422  0.21367388    -0.06600
N144        N  0.49517552  0.40070952  0.24488721    -0.59400
N145        N  0.54437597  0.43251560  0.12220525    -0.06300
N146        N  0.55194757  0.41941643  0.09239514    -0.61900
C147        C  0.52098975  0.39941138  0.07272324     0.94800
C148        C  0.52120159  0.39984490  0.26216512     0.94600
N149        N  0.62612664  0.54098755  0.21237224    -0.07500
N150        N  0.64629970  0.55837730  0.24343889    -0.60000
N151        N  0.61652506  0.50761994  0.12121096    -0.05600
N152        N  0.63047306  0.50169881  0.09081085    -0.61300
N153        N  0.62543384  0.54036104  0.12038161    -0.07500
N154        N  0.64522368  0.55734922  0.08892600    -0.60300
N155        N  0.61709371  0.50820332  0.21196337    -0.05300
N156        N  0.63133638  0.50264094  0.24221340    -0.61400
Mn157      Mn  0.58121939  0.46983897  0.16703673     1.18400
C158        C  0.64940896  0.53405847  0.26141766     0.96900
C159        C  0.64820183  0.53284339  0.07109143     0.97600
N160        N  0.46969970  0.45719406  0.21394324    -0.07600
N161        N  0.44949135  0.44044258  0.24532206    -0.63900
N162        N  0.47820233  0.48963322  0.12227668    -0.06400
N163        N  0.46347346  0.49545438  0.09274232    -0.64600
N164        N  0.46912363  0.45680062  0.12133710    -0.07100
N165        N  0.44840349  0.43973332  0.09042417    -0.64100
N166        N  0.47879505  0.49002109  0.21284997    -0.06000
N167        N  0.46459475  0.49617004  0.24279832    -0.64800
Mn168      Mn  0.48882822  0.43771340  0.16751440     1.10700
C169        C  0.44643897  0.46514562  0.26271359     0.98100
C170        C  0.44493980  0.46420309  0.07324187     0.98200
N171        N  0.58470252  0.57577953  0.12101669    -0.07100
N172        N  0.60110979  0.59621165  0.08988737    -0.62500
N173        N  0.55154527  0.56454546  0.21228424    -0.06400
N174        N  0.54438378  0.57686537  0.24325721    -0.59200
N175        N  0.58508421  0.57590332  0.21244813    -0.07700
N176        N  0.60146670  0.59589414  0.24387754    -0.62000
N177        N  0.55118579  0.56450861  0.12156906    -0.06700
N178        N  0.54410491  0.57738279  0.09113808    -0.59200
Mn179      Mn  0.60651578  0.55951022  0.16651431     1.20200
Mn180      Mn  0.51438417  0.52772629  0.16720761     1.10100
Cl181      Cl  0.54762186  0.49859157  0.16701218    -0.87200
C182        C  0.57546061  0.59706806  0.07190833     0.95200
C183        C  0.57567164  0.59622011  0.26247344     0.95000
C184        C  0.52896569  0.34388561  0.00125182     0.79000
N185        N  0.52598251  0.35707990  0.03588704    -0.79300
C186        C  0.51774114  0.38107424  0.03589776     0.81500
N187        N  0.51376482  0.39305693  0.00098334    -0.79200
C188        C  0.51777118  0.38160263  0.29913382     0.81500
N189        N  0.52567986  0.35733543  0.29944607    -0.81000
C190        C  0.38720119  0.46757920  0.00056685     0.79000
N191        N  0.40075768  0.46575466  0.03552811    -0.79300
C192        C  0.42618663  0.45941277  0.03615099     0.81500
N193        N  0.43913048  0.45613661  0.00147379    -0.79200
C194        C  0.42731416  0.46043773  0.29953035     0.81500
N195        N  0.40193504  0.46681780  0.29937607    -0.81000
C196        C  0.70752619  0.53154517  0.99956985     0.79000
N197        N  0.69351446  0.53320988  0.03420723    -0.79300
C198        C  0.66719861  0.53816582  0.03428226     0.81500
N199        N  0.65393850  0.54044752  0.99943686    -0.79200
C200        C  0.66809271  0.53944083  0.29840277     0.81500
N201        N  0.69430508  0.53434378  0.29874605    -0.81000
C202        C  0.57748441  0.65743106  0.99918401     0.79000
N203        N  0.57728735  0.64214893  0.29909740    -0.79300
C204        C  0.58018568  0.61451951  0.29930434     0.81500
N205        N  0.58094427  0.60042745  0.00025602    -0.79200
C206        C  0.58000111  0.61500428  0.03473164     0.81500
N207        N  0.57787167  0.64314431  0.03417313    -0.81000
C208        C  0.78654473  0.50960890  0.07162512    -0.19000
C209        C  0.81158100  0.50156402  0.07153735    -0.21200
C210        C  0.82351850  0.49643201  0.03562403     0.19400
C211        C  0.80957021  0.49867559  0.99947790    -0.04100
C212        C  0.78436941  0.50683658  0.99955992    -0.07200
C213        C  0.77302660  0.51258959  0.03579413     0.19700
C214        C  0.77188488  0.51137770  0.29730192     0.17900
C215        C  0.78443477  0.50712960  0.26136193    -0.18700
C216        C  0.80938334  0.49900625  0.26123723    -0.20900
C217        C  0.82224453  0.49512806  0.29706277     0.19400
C218        C  0.84870982  0.48898336  0.29712729    -0.33900
C219        C  0.86298406  0.48660522  0.99903505     0.00100
C220        C  0.84993773  0.49018540  0.03517786    -0.25300
C221        C  0.74838000  0.52122181  0.03557783    -0.29800
C222        C  0.73478398  0.52407441  0.99958839     0.05700
C223        C  0.74741365  0.52018635  0.29760533    -0.28500
H224        H  0.77796884  0.51377928  0.09969896     0.10400
H225        H  0.82196843  0.49982792  0.09955937     0.11600
H226        H  0.77517753  0.51039042  0.23331660     0.10700
H227        H  0.81903102  0.49629745  0.23311452     0.09900
H228        H  0.85912748  0.48717886  0.26909255     0.15300
H229        H  0.86116426  0.48936809  0.06301759     0.11200
H230        H  0.73968123  0.52550522  0.06350398     0.14100
H231        H  0.73815183  0.52360988  0.26965148     0.13800
C232        C  0.29363678  0.47002537  0.26511090    -0.19000
C233        C  0.26853031  0.47804824  0.26448079    -0.21200
C234        C  0.26439010  0.49415950  0.29733847     0.19400
C235        C  0.28378740  0.49930630  0.99831891    -0.04100
C236        C  0.30923311  0.49136139  0.99874678    -0.07200
C237        C  0.31505651  0.47795473  0.29860490     0.19700
C238        C  0.32643612  0.49387870  0.03447548     0.17900
C239        C  0.31829184  0.50452318  0.06931990    -0.18700
C240        C  0.29311347  0.51236443  0.06889919    -0.20900
C241        C  0.27564883  0.50971667  0.03363207     0.19400
C242        C  0.25018680  0.51728792  0.03318562    -0.33900
C243        C  0.23271112  0.51485584  0.99786482     0.00100
C244        C  0.23911314  0.50211980  0.29709200    -0.25300
C245        C  0.34032492  0.47001198  0.29950329    -0.29800
C246        C  0.35998029  0.47534997  0.99989961     0.05700
C247        C  0.35151736  0.48576744  0.03484202    -0.28500
H248        H  0.29627785  0.45757118  0.23936928     0.10400
H249        H  0.25230358  0.47159541  0.23829534     0.11600
H250        H  0.33135050  0.50670880  0.09696149     0.10700
H251        H  0.28723545  0.52043633  0.09624194     0.09900
H252        H  0.24416082  0.52530776  0.06047180     0.15300
H253        H  0.22254795  0.49566462  0.27119535     0.11200
H254        H  0.34330945  0.45760524  0.27394430     0.14100
H255        H  0.36467434  0.48790599  0.06239925     0.13800
C256        C  0.82904477  0.20391304  0.07253000    -0.19000
C257        C  0.86045955  0.23799215  0.07191313    -0.21200
C258        C  0.88256946  0.25000515  0.03844603     0.19400
C259        C  0.87299899  0.22842438  0.33957827    -0.04100
C260        C  0.84140757  0.19393473  0.34030295    -0.07200
C261        C  0.81929814  0.18140753  0.03966735     0.19700
C262        C  0.83179875  0.17138305  0.30714571     0.17900
C263        C  0.85463812  0.18299968  0.27431894    -0.18700
C264        C  0.88605755  0.21721952  0.27363866    -0.20900
C265        C  0.89509439  0.24035380  0.30575680     0.19400
C266        C  0.92529558  0.27546712  0.30425647    -0.33900
C267        C  0.93432304  0.29747305  0.00253781     0.00100
C268        C  0.91301536  0.28475065  0.03680062    -0.25300
C269        C  0.78680997  0.14818080  0.03911911    -0.29800
C270        C  0.77587237  0.12648020  0.00522770     0.05700
C271        C  0.79894225  0.13819774  0.30683164    -0.28500
H272        H  0.81201776  0.19541640  0.09839298     0.10400
H273        H  0.86714487  0.25518643  0.09732866     0.11600
H274        H  0.84781398  0.16590276  0.24878840     0.10700
H275        H  0.90290765  0.22585474  0.24762270     0.09900
H276        H  0.94198846  0.28490287  0.27805683     0.15300
H277        H  0.91932744  0.30230512  0.06177849     0.11200
H278        H  0.76925619  0.14006304  0.06447833     0.14100
H279        H  0.79096465  0.12127727  0.28092203     0.13800
C280        C  0.58290473  0.25750948  0.06911873    -0.19000
C281        C  0.57572071  0.28323555  0.06884380    -0.21200
C282        C  0.56034622  0.28749031  0.03545275     0.19400
C283        C  0.55235539  0.26575642  0.00189740    -0.04100
C284        C  0.55958384  0.23978263  0.00218063    -0.07200
C285        C  0.57486368  0.23560295  0.03598814     0.19700
C286        C  0.55267934  0.21972347  0.30165833     0.17900
C287        C  0.53789358  0.22433920  0.26799209    -0.18700
C288        C  0.53055520  0.24990507  0.26771934    -0.20900
C289        C  0.53783783  0.27126492  0.30113289     0.19400
C290        C  0.53060442  0.29699797  0.30095346    -0.33900
C291        C  0.53746086  0.31728138  0.00140778     0.00100
C292        C  0.55269771  0.31297234  0.03506482    -0.25300
C293        C  0.58199269  0.20973836  0.03599507    -0.29800
C294        C  0.57446787  0.18826256  0.00243595     0.05700
C295        C  0.56042844  0.19437605  0.30191052    -0.28500
H296        H  0.59474154  0.25473640  0.09526755     0.10400
H297        H  0.58212738  0.29977082  0.09482187     0.11600
H298        H  0.53208365  0.20821705  0.24177494     0.10700
H299        H  0.51920704  0.25299795  0.24132726     0.09900
H300        H  0.51921347  0.30027848  0.27470988     0.15300
H301        H  0.55880965  0.32958792  0.06091571     0.11200
H302        H  0.59390685  0.20671968  0.06191735     0.14100
H303        H  0.55478111  0.17819764  0.27577076     0.13800
C304        C  0.24093457  0.80008626  0.06336620    -0.19000
C305        C  0.27446783  0.83242153  0.06382919    -0.21200
C306        C  0.29737810  0.84280082  0.03119887     0.19400
C307        C  0.28528376  0.82126570  0.33063557    -0.04100
C308        C  0.25140327  0.78873737  0.33010614    -0.07200
C309        C  0.22926318  0.77776121  0.36381209     0.19700
C310        C  0.23995606  0.76695947  0.29608097     0.17900
C311        C  0.26227518  0.77792564  0.26284166    -0.18700
C312        C  0.29582021  0.81012343  0.26336985    -0.20900
C313        C  0.30758161  0.83187683  0.29714064     0.19400
C314        C  0.34147205  0.86377637  0.29816560    -0.33900
C315        C  0.35437798  0.88474146  0.99918043     0.00100
C316        C  0.33153252  0.87461890  0.03193622    -0.25300
C317        C  0.19615995  0.74473150  0.36356528    -0.29800
C318        C  0.18561508  0.72202846  0.99686420     0.05700
C319        C  0.20796658  0.73310763  0.96347516    -0.28500
H320        H  0.22419344  0.79183427  0.42345782     0.10400
H321        H  0.28262585  0.84915510  0.08989779     0.11600
H322        H  0.25389269  0.76145710  0.23652699     0.10700
H323        H  0.31268143  0.81789447  0.23744334     0.09900
H324        H  0.35863204  0.87149164  0.27250100     0.15300
H325        H  0.34037024  0.89142806  0.05801434     0.11200
H326        H  0.17937643  0.73607652  0.38966208     0.14100
H327        H  0.19989288  0.71587164  0.93783736     0.13800
C328        C  0.54347904  0.75874893  0.26288711    -0.19000
C329        C  0.54942821  0.73218322  0.26255379    -0.21200
C330        C  0.55807465  0.72256226  0.29773117     0.19400
C331        C  0.56217888  0.74073306  0.99899992    -0.04100
C332        C  0.55569010  0.76711426  0.99947335    -0.07200
C333        C  0.54608910  0.77604590  0.29839073     0.19700
C334        C  0.55809254  0.78405390  0.03544405     0.17900
C335        C  0.56703766  0.77464796  0.07051839    -0.18700
C336        C  0.57350934  0.74851910  0.07003721    -0.20900
C337        C  0.57103090  0.73139079  0.03450809     0.19400
C338        C  0.57681537  0.70475574  0.03404712    -0.33900
C339        C  0.57369247  0.68710202  0.99863002     0.00100
C340        C  0.56378759  0.69580488  0.29778531    -0.25300
C341        C  0.54050908  0.80291380  0.29898244    -0.29800
C342        C  0.54357253  0.82036415  0.00052802     0.05700
C343        C  0.55184173  0.81037009  0.03575797    -0.28500
H344        H  0.53688226  0.76580157  0.23536677     0.10400
H345        H  0.54723894  0.71914809  0.23482016     0.11600
H346        H  0.56904573  0.78751705  0.09831501     0.10700
H347        H  0.58030039  0.74159085  0.09750951     0.09900
H348        H  0.58334788  0.69751386  0.06148718     0.15300
H349        H  0.56132914  0.68234468  0.27028264     0.11200
H350        H  0.53409950  0.81035847  0.27160908     0.14100
H351        H  0.55406996  0.82348567  0.06345182     0.13800
C352        C  0.53903671  0.84966871  0.33494622     0.79000
N353        N  0.53799698  0.86412047  0.63265943    -0.79300
C354        C  0.53420760  0.89121946  0.63325132     0.81500
N355        N  0.53337961  0.90519432  0.66830089    -0.79200
C356        C  0.53564487  0.89185231  0.37010419     0.81500
N357        N  0.53872885  0.86430625  0.36978676    -0.81000
C358        C  0.39046318  0.91764156  0.33363763     0.79000
N359        N  0.40870456  0.93256268  0.63300748    -0.79300
C360        C  0.44293990  0.96112135  0.63330487     0.81500
N361        N  0.45995910  0.97468537  0.66838270    -0.79200
C362        C  0.44196756  0.95982067  0.36946404     0.81500
N363        N  0.40753891  0.93123246  0.36871557    -0.81000
N364        N  0.64305055  0.05146370  0.54746688    -0.07300
N365        N  0.66432576  0.06993026  0.57726961    -0.59500
N366        N  0.63387044  0.01801304  0.45642627    -0.07000
N367        N  0.64753343  0.01258687  0.42513681    -0.61600
N368        N  0.64288517  0.05081591  0.45680117    -0.06600
N369        N  0.66329087  0.06862117  0.42624538    -0.59400
N370        N  0.63386546  0.01860362  0.54841031    -0.06300
N371        N  0.64823620  0.01383741  0.57941435    -0.61900
C372        C  0.66736741  0.04620214  0.59676546     0.94800
C373        C  0.66580698  0.04447227  0.40686721     0.94600
N374        N  0.52919996  0.93073052  0.45605447    -0.07500
N375        N  0.51335195  0.91016393  0.42484442    -0.60000
N376        N  0.56235099  0.94286752  0.54747329    -0.05600
N377        N  0.56972125  0.93013958  0.57774134    -0.61300
N378        N  0.52862473  0.93083656  0.54768706    -0.07500
N379        N  0.51229589  0.90990200  0.57854338    -0.60300
N380        N  0.56284873  0.94250108  0.45695518    -0.05300
N381        N  0.57060416  0.92989782  0.42672746    -0.61400
Mn382      Mn  0.59893460  0.97998398  0.50239115     1.18400
C383        C  0.53950639  0.90980672  0.40719650     0.96900
C384        C  0.53833052  0.90970680  0.59664723     0.97600
N385        N  0.60062258  0.08539054  0.45531841    -0.07600
N386        N  0.61669205  0.10644043  0.42437048    -0.63900
N387        N  0.56641542  0.07353969  0.54649744    -0.06400
N388        N  0.55841459  0.08602044  0.57662081    -0.64600
N389        N  0.60010249  0.08540150  0.54765266    -0.07100
N390        N  0.61563785  0.10581522  0.57914693    -0.64100
N391        N  0.56686757  0.07332538  0.45586159    -0.06000
N392        N  0.55931965  0.08621823  0.42589756    -0.64800
Mn393      Mn  0.62284600  0.06952337  0.50181632     1.10700
C394        C  0.59053142  0.10679985  0.40665928     0.98100
C395        C  0.58927023  0.10605611  0.59659130     0.98200
N396        N  0.48636141  0.96482522  0.54641854    -0.07100
N397        N  0.46593735  0.94657332  0.57676559    -0.62500
N398        N  0.49532515  0.99713806  0.45479349    -0.06400
N399        N  0.48080500  0.00152500  0.42360043    -0.59200
N400        N  0.48634893  0.96436471  0.45596881    -0.07700
N401        N  0.46512799  0.94559736  0.42629242    -0.62000
N402        N  0.49528760  0.99758196  0.54728174    -0.06700
N403        N  0.48149102  0.00250175  0.57889302    -0.59200
Mn404      Mn  0.50657579  0.94657732  0.50149403     1.20200
Mn405      Mn  0.53028703  0.03594028  0.50104314     1.10100
Cl406      Cl  0.56468865  0.00804531  0.50167551    -0.87200
C407        C  0.46317610  0.97030633  0.59666236     0.95200
C408        C  0.46181461  0.96898234  0.40650675     0.95000
C409        C  0.58324709  0.16269877  0.33542465     0.79000
N410        N  0.58427580  0.14801013  0.63433776    -0.79300
C411        C  0.59240875  0.12396383  0.63374808     0.81500
N412        N  0.59679399  0.11231317  0.33484245    -0.79200
C413        C  0.59403571  0.12519122  0.36983938     0.81500
N414        N  0.58692027  0.15004340  0.37001857    -0.81000
C415        C  0.73942027  0.09473360  0.33744359     0.79000
N416        N  0.72173628  0.08267501  0.63471163    -0.79300
C417        C  0.68708672  0.05466552  0.63376427     0.81500
N418        N  0.66919121  0.03995537  0.66823568    -0.79200
C419        C  0.68622090  0.05295309  0.37058555     0.81500
N420        N  0.72083307  0.08042984  0.37143329    -0.81000
N421        N  0.97777860  0.47916395  0.54409598    -0.07300
N422        N  0.95643416  0.46342401  0.57478902    -0.59500
N423        N  0.99113547  0.51290040  0.45263474    -0.07000
N424        N  0.97886262  0.52087040  0.42232884    -0.61600
N425        N  0.97775227  0.47879901  0.45261842    -0.06600
N426        N  0.95626297  0.46283998  0.42209667    -0.59400
N427        N  0.99103987  0.51324776  0.54374999    -0.06300
N428        N  0.97877687  0.52138978  0.57407314    -0.61900
C429        C  0.95716157  0.49003147  0.59289266     0.94800
C430        C  0.95712795  0.48941279  0.40378695     0.94600
N431        N  0.10104160  0.59029470  0.45243505    -0.07500
N432        N  0.12006189  0.61092969  0.42244306    -0.60000
N433        N  0.06871119  0.58313975  0.54404318    -0.05600
N434        N  0.06491039  0.59801073  0.57545068    -0.61300
N435        N  0.10093627  0.59063590  0.54303169    -0.07500
N436        N  0.11990138  0.61116355  0.57301974    -0.60300
N437        N  0.06877973  0.58273078  0.45147708    -0.05300
N438        N  0.06503656  0.59764169  0.42016553    -0.61400
Mn439      Mn  0.02943850  0.54882271  0.49797533     1.18400
C440        C  0.09739184  0.61532833  0.40267342     0.96900
C441        C  0.09722431  0.61552561  0.59289890     0.97600
N442        N  0.00928904  0.43406866  0.45327267    -0.07600
N443        N  0.99086213  0.41415806  0.42269483    -0.63900
N444        N  0.04106276  0.44124081  0.54454419    -0.06400
N445        N  0.04495432  0.42602496  0.57533259    -0.64600
N446        N  0.00878271  0.43357674  0.54386675    -0.07100
N447        N  0.98982992  0.41255281  0.57366203    -0.64100
N448        N  0.04154208  0.44167003  0.45263052    -0.06000
N449        N  0.04596140  0.42744371  0.42115449    -0.64800
Mn450      Mn  0.99228183  0.45537565  0.49851715     1.10700
C451        C  0.01406155  0.41040598  0.40305214     0.98100
C452        C  0.01264876  0.40798273  0.59280509     0.98200
N453        N  0.13171079  0.54478250  0.54471113    -0.07100
N454        N  0.15269676  0.55988676  0.57589999    -0.62500
N455        N  0.11873986  0.51058228  0.45324586    -0.06400
N456        N  0.13074646  0.50185825  0.42328578    -0.59200
N457        N  0.13202754  0.54463801  0.45225880    -0.07700
N458        N  0.15303758  0.55976538  0.42108572    -0.62000
N459        N  0.11823788  0.51066751  0.54387287    -0.06700
N460        N  0.13002477  0.50187008  0.57380585    -0.59200
Mn461      Mn  0.11760479  0.56868271  0.49811036     1.20200
Mn462      Mn  0.08031988  0.47535556  0.49860608     1.10100
Cl463      Cl  0.05490643  0.51209945  0.49834581    -0.87200
C464        C  0.15145930  0.53270306  0.59339883     0.95200
C465        C  0.15213352  0.53273495  0.40365767     0.95000
C466        C  0.20727690  0.52517657  0.33073880     0.79000
N467        N  0.19456687  0.52830832  0.36573471    -0.79300
C468        C  0.16958601  0.53521731  0.36632126     0.81500
N469        N  0.15668260  0.53841182  0.33171396    -0.79200
C470        C  0.16926503  0.53492851  0.63022170     0.81500
N471        N  0.19318181  0.52655397  0.62990314    -0.81000
C472        C  0.96413273  0.33615350  0.33405319     0.79000
N473        N  0.97668791  0.35352519  0.63108315    -0.79300
C474        C  0.00380780  0.38855209  0.63002965     0.81500
N475        N  0.01694595  0.40670099  0.33137179    -0.79200
C476        C  0.00476290  0.38995799  0.36676404     0.81500
N477        N  0.97810748  0.35503515  0.36794532    -0.81000
C478        C  0.89398919  0.48497979  0.33264242     0.79000
N479        N  0.90919444  0.48493541  0.63077234    -0.79300
C480        C  0.93930721  0.48609742  0.63029619     0.81500
N481        N  0.95378966  0.48615435  0.33181358    -0.79200
C482        C  0.93887009  0.48546113  0.36681742     0.81500
N483        N  0.90925608  0.48520955  0.36721053    -0.81000
C484        C  0.15098483  0.68681827  0.33048299     0.79000
N485        N  0.13716107  0.66918883  0.63000715    -0.79300
C486        C  0.10724306  0.63566159  0.62982253     0.81500
N487        N  0.09217461  0.61859498  0.33099489    -0.79200
C488        C  0.10724619  0.63565021  0.36578411     0.81500
N489        N  0.13684663  0.66951189  0.36533587    -0.81000
N490        N  0.51027388  0.42087639  0.45450972    -0.07300
N491        N  0.49440481  0.40040426  0.42312265    -0.59500
N492        N  0.54404969  0.43210404  0.54587404    -0.07000
N493        N  0.55151996  0.41896427  0.57567088    -0.61600
N494        N  0.51044822  0.42061724  0.54686243    -0.06600
N495        N  0.49448263  0.39981394  0.57801195    -0.59400
N496        N  0.54382518  0.43224640  0.45545172    -0.06300
N497        N  0.55142736  0.41944087  0.42538710    -0.61900
C498        C  0.52050712  0.39971693  0.40561933     0.94800
C499        C  0.52045479  0.39887631  0.59531761     0.94600
N500        N  0.62573359  0.54011826  0.54615866    -0.07500
N501        N  0.64606134  0.55734383  0.57720114    -0.60000
N502        N  0.61600537  0.50714813  0.45473076    -0.05600
N503        N  0.62993468  0.50136475  0.42419453    -0.61300
N504        N  0.62495482  0.53990456  0.45415645    -0.07500
N505        N  0.64474807  0.55704924  0.42276567    -0.60300
N506        N  0.61666130  0.50731765  0.54545225    -0.05300
N507        N  0.63104830  0.50160165  0.57541481    -0.61400
Mn508      Mn  0.58066753  0.46918348  0.50042215     1.18400
C509        C  0.64926084  0.53292763  0.59479752     0.96900
C510        C  0.64766407  0.53261026  0.40466666     0.97600
N511        N  0.46920733  0.45638081  0.54751096    -0.07600
N512        N  0.44890698  0.43935029  0.57872248    -0.63900
N513        N  0.47791096  0.48949677  0.45623295    -0.06400
N514        N  0.46362718  0.49577684  0.42662247    -0.64600
N515        N  0.46880532  0.45667068  0.45485030    -0.07100
N516        N  0.44849036  0.44005994  0.42351452    -0.64100
N517        N  0.47838875  0.48924153  0.54683388    -0.06000
N518        N  0.46415116  0.49515731  0.57693994    -0.64800
Mn519      Mn  0.48833563  0.43721313  0.50088681     1.10700
C520        C  0.44590693  0.46393875  0.59647902     0.98100
C521        C  0.44533500  0.46482922  0.40655729     0.98200
N522        N  0.58424270  0.57525370  0.45509166    -0.07100
N523        N  0.60049674  0.59545152  0.42376025    -0.62500
N524        N  0.55119056  0.56379855  0.54648201    -0.06400
N525        N  0.54418569  0.57635040  0.57734927    -0.59200
N526        N  0.58473977  0.57519674  0.54646028    -0.07700
N527        N  0.60131562  0.59548599  0.57761489    -0.62000
N528        N  0.55075268  0.56406384  0.45581633    -0.06700
N529        N  0.54354021  0.57676253  0.42532432    -0.59200
Mn530      Mn  0.60610669  0.55889437  0.50046341     1.20200
Mn531      Mn  0.51400419  0.52719721  0.50137957     1.10100
Cl532      Cl  0.54721820  0.49806076  0.50080258    -0.87200
C533        C  0.57477227  0.59622062  0.40583047     0.95200
C534        C  0.57561594  0.59592990  0.59623883     0.95000
C535        C  0.52882745  0.34458300  0.33429629     0.79000
N536        N  0.52542850  0.35748960  0.36887498    -0.79300
C537        C  0.51725566  0.38150741  0.36881499     0.81500
N538        N  0.51373338  0.39382036  0.33390965    -0.79200
C539        C  0.51691789  0.38059137  0.63230542     0.81500
N540        N  0.52425655  0.35588926  0.63257039    -0.81000
C541        C  0.38846690  0.46960796  0.33390780     0.79000
N542        N  0.40179269  0.46739391  0.36882706    -0.79300
C543        C  0.42692626  0.46063285  0.36934517     0.81500
N544        N  0.43992476  0.45750915  0.33459125    -0.79200
C545        C  0.42651420  0.45880217  0.63313311     0.81500
N546        N  0.40085874  0.46477815  0.63286576    -0.81000
C547        C  0.70753237  0.53191449  0.33351252     0.79000
N548        N  0.69315987  0.53315946  0.36805899    -0.79300
C549        C  0.66694167  0.53824728  0.36801823     0.81500
N550        N  0.65411910  0.54107703  0.33312338    -0.79200
C551        C  0.66786770  0.53797304  0.63179423     0.81500
N552        N  0.69340018  0.53189480  0.63222081    -0.81000
C553        C  0.57608765  0.65650180  0.33363132     0.79000
N554        N  0.57903753  0.64302997  0.63239449    -0.79300
C555        C  0.58038979  0.61444473  0.63288106     0.81500
N556        N  0.58090705  0.60032870  0.33414551    -0.79200
C557        C  0.57923563  0.61430134  0.36877204     0.81500
N558        N  0.57643027  0.64201946  0.36847054    -0.81000
C559        C  0.78365263  0.50605914  0.40562746    -0.19000
C560        C  0.80873509  0.49805876  0.40550182    -0.21200
C561        C  0.82199503  0.49469950  0.36955798     0.19400
C562        C  0.80924927  0.49860386  0.33338312    -0.04100
C563        C  0.78404834  0.50676852  0.33350569    -0.07200
C564        C  0.77143244  0.51080577  0.36980219     0.19700
C565        C  0.76990741  0.50747588  0.63082589     0.17900
C566        C  0.78242850  0.50323988  0.59485772    -0.18700
C567        C  0.80756111  0.49536536  0.59466602    -0.20900
C568        C  0.82064172  0.49172799  0.63045221     0.19400
C569        C  0.84745448  0.48607702  0.63042547    -0.33900
C570        C  0.86284958  0.48677751  0.33302648     0.00100
C571        C  0.84857306  0.48863730  0.36914825    -0.25300
C572        C  0.74687271  0.51956313  0.36963858    -0.29800
C573        C  0.73464072  0.52424097  0.33362464     0.05700
C574        C  0.74548451  0.51634576  0.63116674    -0.28500
H575        H  0.77406987  0.50887091  0.43374440     0.10400
H576        H  0.81814403  0.49500010  0.43354589     0.11600
H577        H  0.77307099  0.50640840  0.56683446     0.10700
H578        H  0.81723700  0.49274327  0.56651746     0.09900
H579        H  0.85794813  0.48444791  0.60235854     0.15300
H580        H  0.85893049  0.48658301  0.39703139     0.11200
H581        H  0.73718343  0.52252075  0.39760511     0.14100
H582        H  0.73625303  0.51981790  0.60321940     0.13800
C583        C  0.29695900  0.47396902  0.59588895    -0.19000
C584        C  0.27173057  0.48184612  0.59539184    -0.21200
C585        C  0.26480747  0.49422942  0.62974463     0.19400
C586        C  0.28579223  0.50224859  0.33115547    -0.04100
C587        C  0.31111074  0.49412493  0.33180112    -0.07200
C588        C  0.31571152  0.47831173  0.63074420     0.19700
C589        C  0.33238356  0.50210967  0.36570863     0.17900
C590        C  0.32847652  0.51849521  0.39842129    -0.18700
C591        C  0.30342164  0.52653026  0.39778204    -0.20900
C592        C  0.28182097  0.51831936  0.36443135     0.19400
C593        C  0.25621532  0.52573771  0.36392024    -0.33900
C594        C  0.23462320  0.51765563  0.33044901     0.00100
C595        C  0.23957200  0.50226348  0.62958535    -0.25300
C596        C  0.34112033  0.47054480  0.63155083    -0.29800
C597        C  0.36148512  0.47764772  0.33333622     0.05700
C598        C  0.35720843  0.49362084  0.36635399    -0.28500
H599        H  0.30180837  0.46447362  0.56897053     0.10400
H600        H  0.25763755  0.47826098  0.56811907     0.11600
H601        H  0.34472085  0.52498081  0.42459729     0.10700
H602        H  0.30081957  0.53903096  0.42350489     0.09900
H603        H  0.25322522  0.53800310  0.38962079     0.15300
H604        H  0.22521449  0.49878171  0.60255297     0.11200
H605        H  0.34627067  0.46105839  0.60483124     0.14100
H606        H  0.37356410  0.49993537  0.39241255     0.13800
C607        C  0.82836666  0.20518684  0.40630330    -0.19000
C608        C  0.85965172  0.23937967  0.40556570    -0.21200
C609        C  0.88186570  0.25132426  0.37218315     0.19400
C610        C  0.87199213  0.22943988  0.67139746    -0.04100
C611        C  0.84032332  0.19502403  0.67214846    -0.07200
C612        C  0.81885044  0.18250755  0.37363924     0.19700
C613        C  0.83103841  0.17213408  0.63938662     0.17900
C614        C  0.85417939  0.18341778  0.60687246    -0.18700
C615        C  0.88568730  0.21757318  0.60617180    -0.20900
C616        C  0.89450645  0.24097533  0.63795236     0.19400
C617        C  0.92499046  0.27592984  0.63654512    -0.33900
C618        C  0.93373857  0.29859758  0.33628375     0.00100
C619        C  0.91228702  0.28609814  0.37043735    -0.25300
C620        C  0.78649231  0.14913603  0.37314934    -0.29800
C621        C  0.77582270  0.12730564  0.33937982     0.05700
C622        C  0.79827518  0.13887021  0.63921059    -0.28500
H623        H  0.81126632  0.19672600  0.43209861     0.10400
H624        H  0.86617675  0.25668875  0.43082965     0.11600
H625        H  0.84758267  0.16606778  0.58164119     0.10700
H626        H  0.90283434  0.22591345  0.58044073     0.09900
H627        H  0.94208530  0.28506140  0.61068497     0.15300
H628        H  0.91855427  0.30380373  0.39524714     0.11200
H629        H  0.76881382  0.14100593  0.39839201     0.14100
H630        H  0.79056800  0.12160897  0.61364608     0.13800
C631        C  0.58176452  0.25760684  0.40311868    -0.19000
C632        C  0.57437650  0.28319453  0.40286280    -0.21200
C633        C  0.55965257  0.28788579  0.36914355     0.19400
C634        C  0.55247026  0.26669792  0.33528901    -0.04100
C635        C  0.55990490  0.24087954  0.33555227    -0.07200
C636        C  0.57457243  0.23627354  0.36964453     0.19700
C637        C  0.55119065  0.21811115  0.63493863     0.17900
C638        C  0.53738580  0.22336929  0.60080134    -0.18700
C639        C  0.53006811  0.24896108  0.60038217    -0.20900
C640        C  0.53638088  0.26969478  0.63412135     0.19400
C641        C  0.52930528  0.29556417  0.63380378    -0.33900
C642        C  0.53735011  0.31802839  0.33463829     0.00100
C643        C  0.55189659  0.31328849  0.36867159    -0.25300
C644        C  0.58188324  0.21052179  0.36958511    -0.29800
C645        C  0.57508593  0.18956335  0.33570094     0.05700
C646        C  0.55913403  0.19290860  0.63531491    -0.28500
H647        H  0.59309678  0.25449469  0.42951181     0.10400
H648        H  0.58013795  0.29929294  0.42909170     0.11600
H649        H  0.53239191  0.20777985  0.57431481     0.10700
H650        H  0.51954353  0.25259743  0.57361483     0.09900
H651        H  0.51878587  0.29945504  0.60718717     0.15300
H652        H  0.55741785  0.32952078  0.39473076     0.11200
H653        H  0.59327276  0.20712339  0.39574390     0.14100
H654        H  0.55439210  0.17732800  0.60887969     0.13800
C655        C  0.24091782  0.79976646  0.39739696    -0.19000
C656        C  0.27450736  0.83203916  0.39791071    -0.21200
C657        C  0.29703395  0.84285882  0.36485506     0.19400
C658        C  0.28611515  0.82109044  0.66458006    -0.04100
C659        C  0.25242061  0.78836128  0.66418461    -0.07200
C660        C  0.22954742  0.77814079  0.69713061     0.19700
C661        C  0.24186285  0.76566664  0.63104921     0.17900
C662        C  0.26489991  0.77586575  0.59859283    -0.18700
C663        C  0.29825575  0.80826334  0.59898513    -0.20900
C664        C  0.30910207  0.83096911  0.63184142     0.19400
C665        C  0.34276255  0.86311739  0.63272561    -0.33900
C666        C  0.35375420  0.88512130  0.33243801     0.00100
C667        C  0.33125908  0.87458620  0.36560354    -0.25300
C668        C  0.19655232  0.74498766  0.69701470    -0.29800
C669        C  0.18478565  0.72266941  0.32991898     0.05700
C670        C  0.20667250  0.73429204  0.29609727    -0.28500
H671        H  0.22302493  0.79374464  0.75524679     0.10400
H672        H  0.28301937  0.84836401  0.42434627     0.11600
H673        H  0.25719996  0.75867391  0.57298582     0.10700
H674        H  0.31567375  0.81546354  0.57367331     0.09900
H675        H  0.36048065  0.87029593  0.60769533     0.15300
H676        H  0.34042803  0.89097950  0.39202740     0.11200
H677        H  0.17912911  0.73692144  0.72248470     0.14100
H678        H  0.19830819  0.71743366  0.27009448     0.13800
C679        C  0.55329156  0.76507955  0.59399733    -0.19000
C680        C  0.55965197  0.73878774  0.59389687    -0.21200
C681        C  0.56516136  0.72710380  0.62967331     0.19400
C682        C  0.56074200  0.73978612  0.33357408    -0.04100
C683        C  0.55469059  0.76648027  0.33391603    -0.07200
C684        C  0.55233801  0.78003668  0.62986489     0.19700
C685        C  0.55731107  0.78361526  0.36981159     0.17900
C686        C  0.56599484  0.77404002  0.40496309    -0.18700
C687        C  0.57201034  0.74757301  0.40461705    -0.20900
C688        C  0.56936467  0.73029279  0.36914150     0.19400
C689        C  0.57490012  0.70346837  0.36873717    -0.33900
C690        C  0.57187016  0.68588730  0.33328438     0.00100
C691        C  0.57070447  0.70020886  0.63003137    -0.25300
C692        C  0.54598633  0.80638771  0.63035212    -0.29800
C693        C  0.54340610  0.82031980  0.33463648     0.05700
C694        C  0.55149870  0.81025776  0.36995812    -0.28500
H695        H  0.54903805  0.77365774  0.56603468     0.10400
H696        H  0.56008170  0.72747109  0.56588798     0.11600
H697        H  0.56815769  0.78704143  0.43271029     0.10700
H698        H  0.57863495  0.74054459  0.43213736     0.09900
H699        H  0.58135803  0.69616083  0.39618264     0.15300
H700        H  0.57060080  0.68827073  0.60225370     0.11200
H701        H  0.54184542  0.81533455  0.60258818     0.14100
H702        H  0.55386310  0.82352006  0.39758287     0.13800
C703        C  0.54005858  0.85018203  0.66705108     0.79000
N704        N  0.53736603  0.86369539  0.96658260    -0.79300
C705        C  0.53447945  0.89137226  0.96700012     0.81500
N706        N  0.53411773  0.90573534  0.00197241    -0.79200
C707        C  0.53588967  0.89167493  0.70274354     0.81500
N708        N  0.53965993  0.86458373  0.70204501    -0.81000
C709        C  0.39067780  0.91809611  0.66732641     0.79000
N710        N  0.40908343  0.93184874  0.96613342    -0.79300
C711        C  0.44329670  0.96045519  0.96650027     0.81500
N712        N  0.46022598  0.97410178  0.00161144    -0.79200
C713        C  0.44232678  0.96007017  0.70300886     0.81500
N714        N  0.40788538  0.93151757  0.70235427    -0.81000
N715        N  0.64350005  0.05088056  0.88084093    -0.07300
N716        N  0.66469916  0.06927602  0.91073050    -0.59500
N717        N  0.63431152  0.01758916  0.78958265    -0.07000
N718        N  0.64782621  0.01223752  0.75807493    -0.61600
N719        N  0.64334692  0.05040097  0.79015952    -0.06600
N720        N  0.66361487  0.06827593  0.75955962    -0.59400
N721        N  0.63434957  0.01802605  0.88166695    -0.06300
N722        N  0.64868797  0.01321252  0.91268314    -0.61900
C723        C  0.66776572  0.04553823  0.93016174     0.94800
C724        C  0.66604582  0.04418841  0.73992365     0.94600
N725        N  0.52959271  0.93034516  0.78904376    -0.07500
N726        N  0.51372557  0.90992976  0.75773015    -0.60000
N727        N  0.56271370  0.94233112  0.88063107    -0.05600
N728        N  0.57008559  0.92989364  0.91120958    -0.61300
N729        N  0.52899566  0.93034044  0.88076389    -0.07500
N730        N  0.51268032  0.90972135  0.91183861    -0.60300
N731        N  0.56321168  0.94200281  0.78994802    -0.05300
N732        N  0.57090562  0.92943660  0.75960704    -0.61400
Mn733      Mn  0.59936177  0.97944756  0.83551980     1.18400
C734        C  0.53981111  0.90950658  0.74000183     0.96900
C735        C  0.53870367  0.90968598  0.93020394     0.97600
N736        N  0.60113798  0.08503634  0.78875598    -0.07600
N737        N  0.61712388  0.10609424  0.75777488    -0.63900
N738        N  0.56689968  0.07303895  0.87995971    -0.06400
N739        N  0.55888888  0.08563003  0.90994928    -0.64600
N740        N  0.60058934  0.08492139  0.88113550    -0.07100
N741        N  0.61612586  0.10547476  0.91253639    -0.64100
N742        N  0.56738669  0.07297405  0.78941281    -0.06000
N743        N  0.55975636  0.08586740  0.75954253    -0.64800
Mn744      Mn  0.62333807  0.06905980  0.83524293     1.10700
C745        C  0.59089598  0.10644785  0.74019865     0.98100
C746        C  0.58974526  0.10577235  0.92987242     0.98200
N747        N  0.48679792  0.96433150  0.87960552    -0.07100
N748        N  0.46631313  0.94600609  0.90988573    -0.62500
N749        N  0.49590060  0.99693419  0.78818410    -0.06400
N750        N  0.48137128  0.00149160  0.75714404    -0.59200
N751        N  0.48687338  0.96414015  0.78914676    -0.07700
N752        N  0.46559062  0.94551253  0.75945143    -0.62000
N753        N  0.49579447  0.99710842  0.88061774    -0.06700
N754        N  0.48198840  0.00197147  0.91225946    -0.59200
Mn755      Mn  0.50701141  0.94616219  0.83457908     1.20200
Mn756      Mn  0.53082790  0.03554125  0.83449829     1.10100
Cl757      Cl  0.56517094  0.00758995  0.83494877    -0.87200
C758        C  0.46359527  0.96971959  0.92989718     0.95200
C759        C  0.46232314  0.96903193  0.73989533     0.95000
C760        C  0.58194545  0.16135584  0.66921493     0.79000
N761        N  0.58504367  0.14807270  0.96736610    -0.79300
C762        C  0.59284335  0.12375823  0.96694393     0.81500
N763        N  0.59708220  0.11214263  0.66836405    -0.79200
C764        C  0.59416622  0.12482523  0.70343730     0.81500
N765        N  0.58622074  0.14906353  0.70373870    -0.81000
C766        C  0.73888097  0.09530077  0.66988855     0.79000
N767        N  0.72223217  0.08143470  0.96826839    -0.79300
C768        C  0.68734763  0.05392258  0.96730139     0.81500
N769        N  0.66923166  0.03971771  0.00178000    -0.79200
C770        C  0.68621988  0.05283049  0.70342648     0.81500
N771        N  0.72067098  0.08071347  0.70401597    -0.81000
N772        N  0.97729132  0.47827497  0.87731295    -0.07300
N773        N  0.95592190  0.46260054  0.90801101    -0.59500
N774        N  0.99101130  0.51210541  0.78579327    -0.07000
N775        N  0.97893150  0.52013880  0.75535719    -0.61600
N776        N  0.97753986  0.47798320  0.78583830    -0.06600
N777        N  0.95615006  0.46206162  0.75524204    -0.59400
N778        N  0.99056728  0.51236552  0.87686278    -0.06300
N779        N  0.97827110  0.52056634  0.90708266    -0.61900
C780        C  0.95664434  0.48926096  0.92597703     0.94800
C781        C  0.95720615  0.48869097  0.73681684     0.94600
N782        N  0.10083024  0.58949348  0.78597637    -0.07500
N783        N  0.12007070  0.61032276  0.75621410    -0.60000
N784        N  0.06823024  0.58231376  0.87738118    -0.05600
N785        N  0.06442926  0.59738329  0.90858678    -0.61300
N786        N  0.10044656  0.58978643  0.87650084    -0.07500
N787        N  0.11941171  0.61049451  0.90638511    -0.60300
N788        N  0.06860084  0.58198635  0.78484321    -0.05300
N789        N  0.06509436  0.59713978  0.75360051    -0.61400
Mn790      Mn  0.02910312  0.54798448  0.83121311     1.18400
C791        C  0.09757339  0.61491234  0.73637240     0.96900
C792        C  0.09673924  0.61499517  0.92605845     0.97600
N793        N  0.00899810  0.43320979  0.78661398    -0.07600
N794        N  0.99082399  0.41365110  0.75573002    -0.63900
N795        N  0.04034803  0.44009371  0.87811872    -0.06400
N796        N  0.04407549  0.42473950  0.90889477    -0.64600
N797        N  0.00807941  0.43245528  0.87730555    -0.07100
N798        N  0.98899505  0.41134540  0.90701153    -0.64100
N799        N  0.04125167  0.44081192  0.78614354    -0.06000
N800        N  0.04593489  0.42696102  0.75449384    -0.64800
Mn801      Mn  0.99183679  0.45443916  0.83183203     1.10700
C802        C  0.01419208  0.41014284  0.73608261     0.98100
C803        C  0.01169212  0.40662818  0.92622042     0.98200
N804        N  0.13108118  0.54386164  0.87827785    -0.07100
N805        N  0.15210641  0.55910690  0.90938168    -0.62500
N806        N  0.11832446  0.50961609  0.78699815    -0.06400
N807        N  0.13024325  0.50082892  0.75700850    -0.59200
N808        N  0.13155027  0.54365491  0.78588564    -0.07700
N809        N  0.15240693  0.55869635  0.75457957    -0.62000
N810        N  0.11759732  0.50974134  0.87761322    -0.06700
N811        N  0.12942880  0.50107162  0.90761769    -0.59200
Mn812      Mn  0.11714057  0.56776015  0.83166583     1.20200
Mn813      Mn  0.07981282  0.47437216  0.83229986     1.10100
Cl814      Cl  0.05446415  0.51117484  0.83182212    -0.87200
C815        C  0.15088758  0.53200936  0.92702530     0.95200
C816        C  0.15146344  0.53162877  0.73719155     0.95000
C817        C  0.20588787  0.52284579  0.66445052     0.79000
N818        N  0.19305899  0.52592420  0.69937419    -0.79300
C819        C  0.16899520  0.53404372  0.69993058     0.81500
N820        N  0.15700086  0.53842179  0.66528882    -0.79200
C821        C  0.16877657  0.53449240  0.96379889     0.81500
N822        N  0.19296924  0.52650454  0.96353193    -0.81000
C823        C  0.96421983  0.33653427  0.66641408     0.79000
N824        N  0.97661673  0.35212342  0.96493372    -0.79300
C825        C  0.00288096  0.38745407  0.96368697     0.81500
N826        N  0.01785012  0.40683316  0.66438689    -0.79200
C827        C  0.00511720  0.38993227  0.69963281     0.81500
N828        N  0.97807415  0.35515366  0.70046247    -0.81000
C829        C  0.89353816  0.48327086  0.66576471     0.79000
N830        N  0.90924087  0.48541569  0.96363268    -0.79300
C831        C  0.93876521  0.48551272  0.96329439     0.81500
N832        N  0.95425752  0.48611496  0.66485837    -0.79200
C833        C  0.93900031  0.48475287  0.69985514     0.81500
N834        N  0.90892476  0.48366196  0.70030049    -0.81000
C835        C  0.15203145  0.68648759  0.66461008     0.79000
N836        N  0.13672569  0.66889040  0.96285055    -0.79300
C837        C  0.10675502  0.63538207  0.96281018     0.81500
N838        N  0.09270432  0.61858371  0.66472127    -0.79200
C839        C  0.10772964  0.63543844  0.69961575     0.81500
N840        N  0.13759100  0.66915798  0.69937772    -0.81000
N841        N  0.50961039  0.41969181  0.78804989    -0.07300
N842        N  0.49368995  0.39924202  0.75665217    -0.59500
N843        N  0.54374820  0.43145339  0.87932061    -0.07000
N844        N  0.55147693  0.41859314  0.90916523    -0.61600
N845        N  0.51013506  0.41989532  0.88052551    -0.06600
N846        N  0.49441345  0.39930939  0.91189752    -0.59400
N847        N  0.54319843  0.43116772  0.78881313    -0.06300
N848        N  0.55076794  0.41845732  0.75859636    -0.61900
C849        C  0.51978629  0.39867491  0.73892366     0.94800
C850        C  0.52056905  0.39860363  0.92910107     0.94600
N851        N  0.62508412  0.53953158  0.87890423    -0.07500
N852        N  0.64536886  0.55700589  0.90986129    -0.60000
N853        N  0.61534160  0.50615923  0.78784961    -0.05600
N854        N  0.62953657  0.50032351  0.75765228    -0.61300
N855        N  0.62417782  0.53887236  0.78696003    -0.07500
N856        N  0.64415979  0.55592566  0.75563697    -0.60300
N857        N  0.61609821  0.50676039  0.87852870    -0.05300
N858        N  0.63050082  0.50130042  0.90870056    -0.61400
Mn859      Mn  0.58012237  0.46835924  0.83366436     1.18400
C860        C  0.64860418  0.53276844  0.92781605     0.96900
C861        C  0.64732350  0.53147774  0.73796452     0.97600
N862        N  0.46872837  0.45556197  0.88094738    -0.07600
N863        N  0.44846088  0.43870117  0.91223749    -0.63900
N864        N  0.47704596  0.48812684  0.78946611    -0.06400
N865        N  0.46252149  0.49410715  0.75985731    -0.64600
N866        N  0.46798021  0.45530231  0.78838916    -0.07100
N867        N  0.44746583  0.43840060  0.75727821    -0.64100
N868        N  0.47783206  0.48839283  0.87996773    -0.06000
N869        N  0.46358511  0.49445310  0.90991995    -0.64800
Mn870      Mn  0.48776651  0.43617678  0.83446421     1.10700
C871        C  0.44540001  0.46336561  0.92968516     0.98100
C872        C  0.44412345  0.46297570  0.74014251     0.98200
N873        N  0.58337179  0.57429922  0.78796294    -0.07100
N874        N  0.59979059  0.59500650  0.75704763    -0.62500
N875        N  0.55054742  0.56309631  0.87927368    -0.06400
N876        N  0.54368434  0.57589753  0.91002748    -0.59200
N877        N  0.58409803  0.57449869  0.87915599    -0.07700
N878        N  0.60080340  0.59500723  0.91013402    -0.62000
N879        N  0.54986786  0.56305984  0.78865679    -0.06700
N880        N  0.54279689  0.57621681  0.75849876    -0.59200
Mn881      Mn  0.60533923  0.55802394  0.83318646     1.20200
Mn882      Mn  0.51324805  0.52618337  0.83434130     1.10100
Cl883      Cl  0.54655290  0.49712642  0.83389612    -0.87200
C884        C  0.57418152  0.59607865  0.73933699     0.95200
C885        C  0.57519889  0.59561250  0.92876159     0.95000
C886        C  0.52710942  0.34290863  0.66741142     0.79000
N887        N  0.52398172  0.35600496  0.70201090    -0.79300
C888        C  0.51641210  0.38047483  0.70200994     0.81500
N889        N  0.51318439  0.39301841  0.66711100    -0.79200
C890        C  0.51742006  0.38057901  0.96617169     0.81500
N891        N  0.52536193  0.35634046  0.96643839    -0.81000
C892        C  0.38696339  0.46705095  0.66732305     0.79000
N893        N  0.40017749  0.46475352  0.70229459    -0.79300
C894        C  0.42566236  0.45849093  0.70290983     0.81500
N895        N  0.43906255  0.45586128  0.66821910    -0.79200
C896        C  0.42623781  0.45857616  0.96639626     0.81500
N897        N  0.40069903  0.46471630  0.96611386    -0.81000
C898        C  0.70629448  0.52902843  0.66702521     0.79000
N899        N  0.69220736  0.53079397  0.70153780    -0.79300
C900        C  0.66666454  0.53686351  0.70142341     0.81500
N901        N  0.65422963  0.54016612  0.66648825    -0.79200
C902        C  0.66753712  0.53836842  0.96465292     0.81500
N903        N  0.69383793  0.53340321  0.96486881    -0.81000
C904        C  0.57828559  0.65781325  0.66680622     0.79000
N905        N  0.57794857  0.64245833  0.96478183    -0.79300
C906        C  0.58016313  0.61439365  0.96529594     0.81500
N907        N  0.58007096  0.59979392  0.66778506    -0.79200
C908        C  0.57884996  0.61417175  0.70226184     0.81500
N909        N  0.57756875  0.64284127  0.70177455    -0.81000
C910        C  0.78193585  0.50234366  0.73911435    -0.19000
C911        C  0.80722151  0.49459881  0.73892208    -0.21200
C912        C  0.82055569  0.49139206  0.70294336     0.19400
C913        C  0.80758385  0.49505819  0.66681036    -0.04100
C914        C  0.78218246  0.50296712  0.66700049    -0.07200
C915        C  0.76958432  0.50699283  0.70332130     0.19700
C916        C  0.77089121  0.50967305  0.96336362     0.17900
C917        C  0.78220450  0.50374052  0.92750270    -0.18700
C918        C  0.80720200  0.49566884  0.92741808    -0.20900
C919        C  0.82132251  0.49348867  0.96320030     0.19400
C920        C  0.84777242  0.48729822  0.96322684    -0.33900
C921        C  0.86190019  0.48424788  0.66626719     0.00100
C922        C  0.84748944  0.48582336  0.70244344    -0.25300
C923        C  0.74504700  0.51580981  0.70319601    -0.29800
C924        C  0.73288631  0.52062347  0.66718920     0.05700
C925        C  0.74633350  0.51838073  0.96361138    -0.28500
H926        H  0.77236649  0.50512584  0.76725669     0.10400
H927        H  0.81678198  0.49169604  0.76694126     0.11600
H928        H  0.77193098  0.50562990  0.89947161     0.10700
H929        H  0.81586773  0.49162915  0.89933389     0.09900
H930        H  0.85725791  0.48415449  0.93521396     0.15300
H931        H  0.85806794  0.48402971  0.73029379     0.11200
H932        H  0.73545818  0.51888611  0.73117046     0.14100
H933        H  0.73600218  0.52038008  0.93567660     0.13800
C934        C  0.30008953  0.47849995  0.92815729    -0.19000
C935        C  0.27485743  0.48637327  0.92773110    -0.21200
C936        C  0.26649656  0.49678874  0.96265905     0.19400
C937        C  0.28348822  0.49864166  0.66492951    -0.04100
C938        C  0.30892723  0.49068670  0.66543188    -0.07200
C939        C  0.31741303  0.48088991  0.96351173     0.19700
C940        C  0.32754288  0.49512775  0.70067509     0.17900
C941        C  0.32080689  0.50769648  0.73494535    -0.18700
C942        C  0.29563379  0.51554803  0.73445218    -0.20900
C943        C  0.27677308  0.51099425  0.69968171     0.19400
C944        C  0.25134898  0.51861666  0.69916013    -0.33900
C945        C  0.23257478  0.51440292  0.66428269     0.00100
C946        C  0.24115565  0.50467376  0.96261497    -0.25300
C947        C  0.34275569  0.47303055  0.96428632    -0.29800
C948        C  0.35970937  0.47474421  0.66668838     0.05700
C949        C  0.35261465  0.48699958  0.70111576    -0.28500
H950        H  0.30604295  0.47051428  0.90080158     0.10400
H951        H  0.26186194  0.48429059  0.90007512     0.11600
H952        H  0.33496677  0.51138583  0.76219510     0.10700
H953        H  0.29086457  0.52513642  0.76134902     0.09900
H954        H  0.24643151  0.52817098  0.72599194     0.15300
H955        H  0.22786523  0.50261628  0.93519547     0.11200
H956        H  0.34895418  0.46500466  0.93713216     0.14100
H957        H  0.36690161  0.49063919  0.72825871     0.13800
C958        C  0.82662090  0.20696331  0.73741223    -0.19000
C959        C  0.85798261  0.24108392  0.73664604    -0.21200
C960        C  0.88061035  0.25260848  0.70365771     0.19400
C961        C  0.87350332  0.22726628  0.00564146    -0.04100
C962        C  0.84175817  0.19286884  0.00624314    -0.07200
C963        C  0.81745096  0.18394444  0.70517085     0.19700
C964        C  0.83188733  0.17047277  0.97289528     0.17900
C965        C  0.85466427  0.18214566  0.93999260    -0.18700
C966        C  0.88624612  0.21628396  0.93943483    -0.20900
C967        C  0.89551503  0.23930127  0.97174532     0.19400
C968        C  0.92578371  0.27443670  0.97034365    -0.33900
C969        C  0.93329800  0.29924544  0.66832727     0.00100
C970        C  0.91129774  0.28719239  0.70202300    -0.25300
C971        C  0.78520707  0.15049359  0.70484467    -0.29800
C972        C  0.77498589  0.12822212  0.67154942     0.05700
C973        C  0.79886189  0.13740194  0.97252107    -0.28500
H974        H  0.80925301  0.19878006  0.76293481     0.10400
H975        H  0.86430563  0.25862893  0.76161790     0.11600
H976        H  0.84766431  0.16517074  0.91431040     0.10700
H977        H  0.90301771  0.22496993  0.91334997     0.09900
H978        H  0.94235185  0.28399591  0.94404811     0.15300
H979        H  0.91743553  0.30508584  0.72659482     0.11200
H980        H  0.76730862  0.14255357  0.72984563     0.14100
H981        H  0.79068233  0.12059701  0.94648931     0.13800
C982        C  0.57719696  0.25397193  0.73753260    -0.19000
C983        C  0.56982472  0.27955302  0.73713255    -0.21200
C984        C  0.55617757  0.28494586  0.70292196     0.19400
C985        C  0.54994499  0.26440204  0.66875108    -0.04100
C986        C  0.55736059  0.23857555  0.66916167    -0.07200
C987        C  0.57106689  0.23335463  0.70371241     0.19700
C988        C  0.55155358  0.21805596  0.96861250     0.17900
C989        C  0.53619003  0.22229414  0.93522822    -0.18700
C990        C  0.52905523  0.24802579  0.93493471    -0.20900
C991        C  0.53710707  0.26992444  0.96805306     0.19400
C992        C  0.53000245  0.29577424  0.96793591    -0.33900
C993        C  0.53520672  0.31601935  0.66780086     0.00100
C994        C  0.54864019  0.31048504  0.70227911    -0.25300
C995        C  0.57863438  0.20781266  0.70374129    -0.29800
C996        C  0.57303868  0.18764681  0.66951678     0.05700
C997        C  0.55915312  0.19258196  0.96891128    -0.28500
H998        H  0.58775610  0.25035634  0.76428354     0.10400
H999        H  0.57481453  0.29514420  0.76361720     0.11600
H1000       H  0.52977243  0.20575331  0.90925252     0.10700
H1001       H  0.51724083  0.25080933  0.90877155     0.09900
H1002       H  0.51811349  0.29874310  0.94195268     0.15300
H1003       H  0.55350843  0.32623878  0.72859544     0.11200
H1004       H  0.58939205  0.20404731  0.73022865     0.14100
H1005       H  0.55295289  0.17598065  0.94302536     0.13800
C1006       C  0.24032316  0.80107865  0.72980066    -0.19000
C1007       C  0.27374732  0.83355232  0.73018903    -0.21200
C1008       C  0.29698116  0.84364392  0.69792035     0.19400
C1009       C  0.28608619  0.82067790  0.99744001    -0.04100
C1010       C  0.25226910  0.78807048  0.99697263    -0.07200
C1011       C  0.22972111  0.77756902  0.03026182     0.19700
C1012       C  0.24126583  0.76577220  0.96342581     0.17900
C1013       C  0.26399163  0.77627841  0.93061102    -0.18700
C1014       C  0.29746795  0.80856722  0.93106782    -0.20900
C1015       C  0.30876439  0.83086143  0.96435318     0.19400
C1016       C  0.34255927  0.86288872  0.96532219    -0.33900
C1017       C  0.35416160  0.88539817  0.66616972     0.00100
C1018       C  0.33104429  0.87559239  0.69860252    -0.25300
C1019       C  0.19661332  0.74454005  0.03007149    -0.29800
C1020       C  0.18599650  0.72214747  0.66417010     0.05700
C1021       C  0.20867368  0.73292759  0.63113428    -0.28500
H1022       H  0.22389376  0.79252256  0.08909347     0.10400
H1023       H  0.28156902  0.85061910  0.75592413     0.11600
H1024       H  0.25595914  0.75940573  0.90467211     0.10700
H1025       H  0.31463103  0.81599627  0.90546923     0.09900
H1026       H  0.36002812  0.87030535  0.93999847     0.15300
H1027       H  0.33960182  0.89275020  0.72436283     0.11200
H1028       H  0.17947346  0.73628617  0.05582308     0.14100
H1029       H  0.20092382  0.71540025  0.60581381     0.13800
C1030       C  0.54444423  0.75941650  0.92845632    -0.19000
C1031       C  0.55079308  0.73312485  0.92800025    -0.21200
C1032       C  0.55964707  0.72361777  0.96311777     0.19400
C1033       C  0.56450923  0.74216670  0.66583606    -0.04100
C1034       C  0.55800858  0.76854391  0.66593972    -0.07200
C1035       C  0.54684255  0.77654315  0.96402795     0.19700
C1036       C  0.55707153  0.78330653  0.70219871     0.17900
C1037       C  0.56283380  0.77184447  0.73792411    -0.18700
C1038       C  0.56932557  0.74573417  0.73781295    -0.20900
C1039       C  0.57003288  0.73066620  0.70199816     0.19400
C1040       C  0.57555635  0.70384921  0.70187357    -0.33900
C1041       C  0.57533250  0.68804229  0.66613500     0.00100
C1042       C  0.56556495  0.69698869  0.96312489    -0.25300
C1043       C  0.54084227  0.80312671  0.96478197    -0.29800
C1044       C  0.54527853  0.82138328  0.66645882     0.05700
C1045       C  0.55058139  0.80944399  0.70221588    -0.28500
H1046       H  0.53767704  0.76636986  0.90098738     0.10400
H1047       H  0.54870869  0.72018349  0.90022965     0.11600
H1048       H  0.56226468  0.78304043  0.76595741     0.10700
H1049       H  0.57354742  0.73714284  0.76578780     0.09900
H1050       H  0.57938568  0.69487746  0.72981362     0.15300
H1051       H  0.56308852  0.68350941  0.93563197     0.11200
H1052       H  0.53430314  0.81052552  0.93746941     0.14100
H1053       H  0.55008567  0.82074728  0.73021232     0.13800
loop_ 
_geom_bond_atom_site_label_1 
_geom_bond_atom_site_label_2 
_geom_bond_distance 
_geom_bond_site_symmetry_2 
_ccdc_geom_bond_type 
C1            N6   1.358       .  A
C1          N704   1.356   1_554  A
C1          C342   1.475       .  S
N2            C3   1.354       .  A
N2          C352   1.356       .  A
C3            N4   1.355       .  A
C3           C33   1.450       .  S
N4          C356   1.355       .  A
C5            N6   1.354       .  A
C5          N706   1.355       .  A
C5           C32   1.453       .  S
C7           N12   1.359       .  A
C7          N710   1.355   1_554  A
C7          C315   1.480   1_554  S
N8            C9   1.354       .  A
N8          C358   1.355       .  A
C9           N10   1.358       .  A
C9           C56   1.456       .  S
N10         C362   1.359       .  A
C11          N12   1.360       .  A
C11         N712   1.359       .  A
C11          C57   1.462       .  S
N13          N14   1.318       .  A
N13          N19   1.316       .  A
N13         Mn42   2.198       .  S
N14          C21   1.350       .  A
N15          N17   1.316       .  A
N15          N16   1.322       .  A
N15         Mn31   2.196   1_545  S
N16          C22   1.351       .  A
N17          N18   1.316       .  A
N17         Mn42   2.193       .  S
N18          C22   1.349       .  A
N19          N20   1.323       .  A
N19         Mn31   2.210   1_545  S
N20          C21   1.353       .  A
C21          C66   1.461       .  S
C22          C68   1.453       .  S
N23          N29   1.315       .  A
N23          N24   1.320       .  A
N23         Mn53   2.196       .  S
N24          C32   1.350       .  A
N25          N26   1.317       .  A
N25          N27   1.315       .  A
N25         Mn31   2.184       .  S
N26          C33   1.348       .  A
N27          N28   1.321       .  A
N27         Mn53   2.199       .  S
N28          C33   1.350       .  A
N29          N30   1.318       .  A
N29         Mn31   2.193       .  S
N30          C32   1.350       .  A
Mn31        Cl55   2.548   1_565  S
N34          N35   1.324       .  A
N34          N40   1.316       .  A
N34         Mn42   2.215       .  S
N35          C43   1.354       .  A
N36          N38   1.316       .  A
N36          N37   1.318       .  A
N36         Mn54   2.194       .  S
N37          C44   1.349       .  A
N38          N39   1.323       .  A
N38         Mn42   2.215       .  S
N39          C44   1.354       .  A
N40          N41   1.317       .  A
N40         Mn54   2.187       .  S
N41          C43   1.348       .  A
Mn42        Cl55   2.545       .  S
C43          C62   1.460       .  S
C44          C60   1.462       .  S
N45          N46   1.315       .  A
N45          N51   1.315       .  A
N45         Mn53   2.180       .  S
N46          C56   1.347       .  A
N47          N48   1.324   1_565  A
N47          N49   1.315       .  A
N47         Mn54   2.217   1_565  S
N48          C57   1.354   1_545  A
N49          N50   1.317       .  A
N49         Mn53   2.187       .  S
N50          C57   1.348       .  A
N51          N52   1.324   1_565  A
N51         Mn54   2.209   1_565  S
N52          C56   1.353   1_545  A
Mn53        Cl55   2.544   1_565  S
Mn54        Cl55   2.547       .  S
C58          N63   1.359       .  A
C58         N761   1.358   1_554  A
C58         C294   1.483       .  S
N59          C60   1.357       .  A
N59         C409   1.360       .  A
C60         N412   1.357       .  A
N61          C62   1.358       .  A
N61         C762   1.358   1_554  A
C62          N63   1.358       .  A
C64          N69   1.354       .  A
C64         N767   1.359   1_554  A
C64         C270   1.475       .  S
N65          C66   1.359       .  A
N65         C415   1.359       .  A
C66          N67   1.359       .  A
N67         C419   1.357       .  A
C68          N69   1.351       .  A
C68         N769   1.358       .  A
N70          N71   1.321       .  A
N70          N76   1.317       .  A
N70         Mn99   2.200       .  S
N71          C78   1.350       .  A
N72          N74   1.316       .  A
N72          N73   1.319       .  A
N72         Mn88   2.199   1_655  S
N73          C79   1.350       .  A
N74          N75   1.321       .  A
N74         Mn99   2.200       .  S
N75          C79   1.350       .  A
N76          N77   1.320       .  A
N76         Mn88   2.206   1_655  S
N77          C78   1.351       .  A
C78         C129   1.458       .  S
C79         C131   1.456       .  S
N80          N86   1.317       .  A
N80          N81   1.318       .  A
N80        Mn110   2.195       .  S
N81          C89   1.349       .  A
N82          N83   1.325       .  A
N82          N84   1.316       .  A
N82         Mn88   2.214       .  S
N83          C90   1.354       .  A
N84          N85   1.316       .  A
N84        Mn110   2.189       .  S
N85          C90   1.348       .  A
N86          N87   1.325       .  A
N86         Mn88   2.221       .  S
N87          C89   1.355       .  A
Mn88       Cl112   2.550       .  S
C89         C137   1.464       .  S
C90         C135   1.460       .  S
N91          N92   1.317   1_455  A
N91          N97   1.315       .  A
N91         Mn99   2.188   1_455  S
N92         C100   1.349   1_655  A
N93          N95   1.316       .  A
N93          N94   1.322       .  A
N93        Mn111   2.206       .  S
N94         C101   1.352       .  A
N95          N96   1.319   1_455  A
N95         Mn99   2.194   1_455  S
N96         C101   1.350   1_655  A
N97          N98   1.321       .  A
N97        Mn111   2.197       .  S
N98         C100   1.351       .  A
Mn99       Cl112   2.547   1_655  S
C100        C125   1.452       .  S
C101        C123   1.458       .  S
N102        N103   1.324       .  A
N102        N108   1.316       .  A
N102       Mn110   2.219       .  S
N103        C113   1.355       .  A
N104        N105   1.318       .  A
N104        N106   1.315       .  A
N104       Mn111   2.190       .  S
N105        C114   1.349       .  A
N106        N107   1.323       .  A
N106       Mn110   2.211       .  S
N107        C114   1.353       .  A
N108        N109   1.317       .  A
N108       Mn111   2.185       .  S
N109        C113   1.348       .  A
Mn110      Cl112   2.545       .  S
Mn111      Cl112   2.548       .  S
C113        C119   1.460       .  S
C114        C117   1.461       .  S
C115        N116   1.360   1_556  A
C115        N822   1.359       .  A
C115        C243   1.486       .  S
N116        C117   1.357       .  A
C117        N118   1.357   1_554  A
N118        C821   1.357       .  A
C119        N120   1.359       .  A
C119        N469   1.357       .  A
N120        C466   1.360       .  A
C121        N126   1.355       .  A
C121        N824   1.360   1_554  A
C121        C267   1.476       .  S
N122        C123   1.359   1_655  A
N122        C472   1.359       .  A
C123        N475   1.357       .  A
N124        C125   1.356   1_556  A
N124        C825   1.358       .  A
C125        N126   1.351   1_455  A
C127        N132   1.359   1_556  A
C127        N830   1.360       .  A
C127        C219   1.481       .  S
N128        C129   1.356       .  A
N128        C478   1.360       .  A
C129        N481   1.355       .  A
N130        C131   1.355   1_556  A
N130        C831   1.355       .  A
C131        N132   1.355       .  A
C133        N138   1.358   1_556  A
C133        N836   1.356       .  A
C133        C318   1.482       .  S
N134        C135   1.356       .  A
N134        C484   1.357       .  A
C135        N487   1.359       .  A
N136        C137   1.360   1_556  A
N136        C837   1.359       .  A
C137        N138   1.359       .  A
N139        N140   1.324       .  A
N139        N145   1.316       .  A
N139       Mn168   2.218       .  S
N140        C147   1.355       .  A
N141        N143   1.317       .  A
N141        N142   1.318       .  A
N141       Mn157   2.190       .  S
N142        C148   1.348       .  A
N143        N144   1.324       .  A
N143       Mn168   2.219       .  S
N144        C148   1.354       .  A
N145        N146   1.316       .  A
N145       Mn157   2.184       .  S
N146        C147   1.347       .  A
C147        C186   1.459       .  S
C148        C188   1.461       .  S
N149        N155   1.315       .  A
N149        N150   1.322       .  A
N149       Mn179   2.197       .  S
N150        C158   1.352       .  A
N151        N152   1.317       .  A
N151        N153   1.315       .  A
N151       Mn157   2.193       .  S
N152        C159   1.349       .  A
N153        N154   1.322       .  A
N153       Mn179   2.196       .  S
N154        C159   1.351       .  A
N155        N156   1.317       .  A
N155       Mn157   2.189       .  S
N156        C158   1.349       .  A
Mn157      Cl181   2.547       .  S
C158        C200   1.455       .  S
C159        C198   1.455       .  S
N160        N161   1.325       .  A
N160        N166   1.316       .  A
N160       Mn168   2.219       .  S
N161        C169   1.355       .  A
N162        N164   1.316       .  A
N162        N163   1.318       .  A
N162       Mn180   2.189       .  S
N163        C170   1.348       .  A
N164        N165   1.325       .  A
N164       Mn168   2.224       .  S
N165        C170   1.356       .  A
N166        N167   1.317       .  A
N166       Mn180   2.191       .  S
N167        C169   1.349       .  A
Mn168      Cl181   2.543       .  S
C169        C194   1.463       .  S
C170        C192   1.464       .  S
N171        N172   1.320       .  A
N171        N177   1.315       .  A
N171       Mn179   2.190       .  S
N172        C182   1.349       .  A
N173        N174   1.316       .  A
N173        N175   1.315       .  A
N173       Mn180   2.187       .  S
N174        C183   1.348       .  A
N175        N176   1.320       .  A
N175       Mn179   2.187       .  S
N176        C183   1.349       .  A
N177        N178   1.318       .  A
N177       Mn180   2.193       .  S
N178        C182   1.349       .  A
Mn179      Cl181   2.546       .  S
Mn180      Cl181   2.548       .  S
C182        C206   1.450       .  S
C183        C204   1.446       .  S
C184        N185   1.358       .  A
C184        N891   1.359   1_554  A
C184        C291   1.483       .  S
N185        C186   1.358       .  A
C186        N187   1.358       .  A
N187        C890   1.358   1_554  A
C188        N189   1.358       .  A
C188        N538   1.357       .  A
N189        C535   1.360       .  A
C190        N191   1.361       .  A
C190        N897   1.358   1_554  A
C190        C246   1.487   1_554  S
N191        C192   1.359       .  A
C192        N193   1.358       .  A
N193        C896   1.358   1_554  A
C194        N195   1.358       .  A
C194        N544   1.359       .  A
N195        C541   1.358       .  A
C196        N197   1.356   1_556  A
C196        N903   1.357       .  A
C196        C222   1.479       .  S
N197        C198   1.355       .  A
C198        N199   1.357   1_554  A
N199        C902   1.357       .  A
C200        N201   1.355       .  A
C200        N550   1.357       .  A
N201        C547   1.357       .  A
C202        N207   1.357   1_556  A
C202        N905   1.355       .  A
C202        C339   1.472       .  S
N203        C204   1.352       .  A
N203        C553   1.354       .  A
C204        N556   1.355       .  A
N205        C206   1.354       .  A
N205        C906   1.354   1_554  A
C206        N207   1.353       .  A
C208        C209   1.398       .  A
C208        C213   1.403       .  A
C208        H224   1.083       .  S
C209        C210   1.403       .  A
C209        H225   1.084       .  S
C210        C220   1.401       .  A
C210        C211   1.411   1_554  A
C211        C212   1.409       .  A
C211        C919   1.411       .  A
C212        C213   1.411   1_556  A
C212        C916   1.411       .  A
C213        C221   1.401       .  A
C214        C223   1.399       .  A
C214        C215   1.402       .  A
C214        C563   1.411       .  A
C215        C216   1.397       .  A
C215        H226   1.084       .  S
C216        C217   1.403       .  A
C216        H227   1.083       .  S
C217        C218   1.400       .  A
C217        C562   1.411       .  A
C218        C570   1.407       .  A
C218        H228   1.084       .  S
C219        C220   1.408   1_556  A
C219        C920   1.407       .  A
C220        H229   1.084       .  S
C221        C222   1.408   1_554  A
C221        H230   1.084       .  S
C222        C925   1.407       .  A
C223        C573   1.406       .  A
C223        H231   1.084       .  S
C232        C233   1.401       .  A
C232        C237   1.404       .  A
C232        H248   1.084       .  S
C233        C234   1.404       .  A
C233        H249   1.083       .  S
C234        C244   1.406       .  A
C234        C586   1.412       .  A
C235        C241   1.411   1_556  A
C235        C236   1.413       .  A
C235        C936   1.411       .  A
C236        C238   1.411   1_556  A
C236        C939   1.411       .  A
C237        C245   1.405       .  A
C237        C587   1.411       .  A
C238        C247   1.402       .  A
C238        C239   1.403       .  A
C239        C240   1.398       .  A
C239        H250   1.083       .  S
C240        C241   1.403       .  A
C240        H251   1.084       .  S
C241        C242   1.401       .  A
C242        C243   1.407   1_554  A
C242        H252   1.084       .  S
C243        C946   1.410       .  A
C244        C594   1.409       .  A
C244        H253   1.084       .  S
C245        C597   1.409       .  A
C245        H254   1.084       .  S
C246        C247   1.407   1_556  A
C246        C947   1.411       .  A
C247        H255   1.084       .  S
C256        C257   1.395       .  A
C256        C261   1.402       .  A
C256        H272   1.084       .  S
C257        C258   1.402       .  A
C257        H273   1.084       .  S
C258        C268   1.397       .  A
C258        C961   1.410       .  A
C259        C265   1.412       .  A
C259        C260   1.408       .  A
C259        C609   1.411       .  A
C260        C262   1.412       .  A
C260        C612   1.410       .  A
C261        C269   1.396       .  A
C261        C962   1.410       .  A
C262        C271   1.403       .  A
C262        C263   1.403       .  A
C263        C264   1.399       .  A
C263        H274   1.083       .  S
C264        C265   1.403       .  A
C264        H275   1.083       .  S
C265        C266   1.402       .  A
C266        C618   1.405       .  A
C266        H276   1.084       .  S
C267        C268   1.407       .  A
C267        C968   1.406   1_554  A
C268        H277   1.084       .  S
C269        C270   1.407       .  A
C269        H278   1.084       .  S
C270        C973   1.406   1_554  A
C271        C621   1.405       .  A
C271        H279   1.084       .  S
C280        C281   1.400       .  A
C280        C285   1.404       .  A
C280        H296   1.083       .  S
C281        C282   1.404       .  A
C281        H297   1.084       .  S
C282        C292   1.404       .  A
C282        C283   1.411       .  A
C283        C284   1.412       .  A
C283        C991   1.411   1_554  A
C284        C285   1.411       .  A
C284        C988   1.411   1_554  A
C285        C293   1.404       .  A
C286        C295   1.402       .  A
C286        C287   1.403       .  A
C286        C635   1.411       .  A
C287        C288   1.398       .  A
C287        H298   1.084       .  S
C288        C289   1.403       .  A
C288        H299   1.083       .  S
C289        C290   1.402       .  A
C289        C634   1.411       .  A
C290        C642   1.406       .  A
C290        H300   1.084       .  S
C291        C292   1.409       .  A
C291        C992   1.407   1_554  A
C292        H301   1.084       .  S
C293        C294   1.408       .  A
C293        H302   1.084       .  S
C294        C997   1.407   1_554  A
C295        C645   1.407       .  A
C295        H303   1.084       .  S
C304        C305   1.400       .  A
C304       C1011   1.404       .  A
C304       H1022   1.084       .  S
C305        C306   1.404       .  A
C305        H321   1.083       .  S
C306        C316   1.405       .  A
C306       C1009   1.412   1_554  A
C307        C313   1.411       .  A
C307        C308   1.412       .  A
C307        C657   1.412       .  A
C308        C310   1.411       .  A
C308        C309   1.411       .  A
C309        C317   1.405       .  A
C309        C655   1.404       .  A
C310        C311   1.403       .  A
C310        C670   1.401       .  A
C311        C312   1.397       .  A
C311        H322   1.084       .  S
C312        C313   1.403       .  A
C312        H323   1.084       .  S
C313        C314   1.400       .  A
C314        C666   1.408       .  A
C314        H324   1.084       .  S
C315        C316   1.406   1_556  A
C315       C1016   1.408       .  A
C316        H325   1.084       .  S
C317        C669   1.407       .  A
C317        H326   1.084       .  S
C318        C319   1.408       .  A
C318       C1019   1.407   1_556  A
C319       C1012   1.401       .  A
C319        H327   1.084       .  S
H320        C655   1.084       .  S
C328        C329   1.397       .  A
C328        C333   1.403       .  A
C328        H344   1.084       .  S
C329        C330   1.403       .  A
C329        H345   1.083       .  S
C330        C340   1.399       .  A
C330        C682   1.411       .  A
C331        C337   1.411   1_556  A
C331        C332   1.407       .  A
C331       C1032   1.411       .  A
C332        C334   1.411   1_556  A
C332       C1035   1.411       .  A
C333        C341   1.399       .  A
C333        C683   1.411       .  A
C334        C343   1.396       .  A
C334        C335   1.402       .  A
C335        C336   1.395       .  A
C335        H346   1.083       .  S
C336        C337   1.401       .  A
C336        H347   1.084       .  S
C337        C338   1.395       .  A
C338        C339   1.404   1_554  A
C338        H348   1.084       .  S
C339       C1042   1.407       .  A
C340        C690   1.407       .  A
C340        H349   1.084       .  S
C341        C693   1.407       .  A
C341        H350   1.084       .  S
C342        C343   1.405       .  A
C342       C1043   1.407   1_554  A
C343        H351   1.084       .  S
C352        N357   1.357       .  A
C352        C693   1.475       .  S
N353        C703   1.356       .  A
N353        C354   1.354       .  A
C354        N355   1.356       .  A
C354        C384   1.450       .  S
N355        C707   1.355       .  A
C356        N357   1.354       .  A
C356        C383   1.452       .  S
C358        N363   1.359       .  A
C358        C666   1.481       .  S
N359        C709   1.355       .  A
N359        C360   1.354       .  A
C360        N361   1.358       .  A
C360        C407   1.456       .  S
N361        C713   1.359       .  A
C362        N363   1.360       .  A
C362        C408   1.461       .  S
N364        N365   1.318       .  A
N364        N370   1.316       .  A
N364       Mn393   2.197       .  S
N365        C372   1.350       .  A
N366        N368   1.316       .  A
N366        N367   1.322       .  A
N366       Mn382   2.195   1_545  S
N367        C373   1.350       .  A
N368        N369   1.316       .  A
N368       Mn393   2.190       .  S
N369        C373   1.349       .  A
N370        N371   1.323       .  A
N370       Mn382   2.207   1_545  S
N371        C372   1.352       .  A
C372        C417   1.460       .  S
C373        C419   1.452       .  S
N374        N380   1.315       .  A
N374        N375   1.320       .  A
N374       Mn404   2.196       .  S
N375        C383   1.350       .  A
N376        N377   1.316       .  A
N376        N378   1.315       .  A
N376       Mn382   2.182       .  S
N377        C384   1.348       .  A
N378        N379   1.321       .  A
N378       Mn404   2.199       .  S
N379        C384   1.351       .  A
N380        N381   1.318       .  A
N380       Mn382   2.190       .  S
N381        C383   1.349       .  A
Mn382      Cl406   2.547   1_565  S
N385        N386   1.324       .  A
N385        N391   1.316       .  A
N385       Mn393   2.215       .  S
N386        C394   1.354       .  A
N387        N389   1.316       .  A
N387        N388   1.318       .  A
N387       Mn405   2.193       .  S
N388        C395   1.349       .  A
N389        N390   1.323       .  A
N389       Mn393   2.210       .  S
N390        C395   1.353       .  A
N391        N392   1.317       .  A
N391       Mn405   2.189       .  S
N392        C394   1.348       .  A
Mn393      Cl406   2.544       .  S
C394        C413   1.460       .  S
C395        C411   1.460       .  S
N396        N397   1.315       .  A
N396        N402   1.315       .  A
N396       Mn404   2.180       .  S
N397        C407   1.347       .  A
N398        N399   1.324   1_565  A
N398        N400   1.316       .  A
N398       Mn405   2.217   1_565  S
N399        C408   1.354   1_545  A
N400        N401   1.317       .  A
N400       Mn404   2.187       .  S
N401        C408   1.348       .  A
N402        N403   1.324   1_565  A
N402       Mn405   2.208   1_565  S
N403        C407   1.353   1_545  A
Mn404      Cl406   2.543   1_565  S
Mn405      Cl406   2.547       .  S
C409        N414   1.359       .  A
C409        C645   1.484       .  S
N410        C760   1.358       .  A
N410        C411   1.356       .  A
C411        N763   1.358       .  A
N412        C413   1.358       .  A
C413        N414   1.358       .  A
C415        N420   1.353       .  A
C415        C621   1.475       .  S
N416        C766   1.358       .  A
N416        C417   1.359       .  A
C417        N418   1.359       .  A
N418        C770   1.358       .  A
C419        N420   1.351       .  A
N421        N422   1.320       .  A
N421        N427   1.316       .  A
N421       Mn450   2.199       .  S
N422        C429   1.350       .  A
N423        N425   1.316       .  A
N423        N424   1.319       .  A
N423       Mn439   2.199   1_655  S
N424        C430   1.350       .  A
N425        N426   1.321       .  A
N425       Mn450   2.201       .  S
N426        C430   1.351       .  A
N427        N428   1.320       .  A
N427       Mn439   2.205   1_655  S
N428        C429   1.352       .  A
C429        C480   1.458       .  S
C430        C482   1.457       .  S
N431        N437   1.317       .  A
N431        N432   1.318       .  A
N431       Mn461   2.197       .  S
N432        C440   1.349       .  A
N433        N434   1.325       .  A
N433        N435   1.316       .  A
N433       Mn439   2.214       .  S
N434        C441   1.354       .  A
N435        N436   1.316       .  A
N435       Mn461   2.187       .  S
N436        C441   1.347       .  A
N437        N438   1.325       .  A
N437       Mn439   2.219       .  S
N438        C440   1.354       .  A
Mn439      Cl463   2.550       .  S
C440        C488   1.464       .  S
C441        C486   1.459       .  S
N442        N443   1.316   1_455  A
N442        N448   1.315       .  A
N442       Mn450   2.184   1_455  S
N443        C451   1.348   1_655  A
N444        N446   1.316       .  A
N444        N445   1.322       .  A
N444       Mn462   2.207       .  S
N445        C452   1.352       .  A
N446        N447   1.318   1_455  A
N446       Mn450   2.193   1_455  S
N447        C452   1.350   1_655  A
N448        N449   1.321       .  A
N448       Mn462   2.196       .  S
N449        C451   1.351       .  A
Mn450      Cl463   2.546   1_655  S
C451        C476   1.450       .  S
C452        C474   1.458       .  S
N453        N454   1.324       .  A
N453        N459   1.316       .  A
N453       Mn461   2.221       .  S
N454        C464   1.355       .  A
N455        N456   1.318       .  A
N455        N457   1.315       .  A
N455       Mn462   2.191       .  S
N456        C465   1.349       .  A
N457        N458   1.323       .  A
N457       Mn461   2.211       .  S
N458        C465   1.353       .  A
N459        N460   1.317       .  A
N459       Mn462   2.183       .  S
N460        C464   1.347       .  A
Mn461      Cl463   2.546       .  S
Mn462      Cl463   2.549       .  S
C464        C470   1.460       .  S
C465        C468   1.461       .  S
C466        N467   1.360       .  A
C466        C594   1.484       .  S
N467        C468   1.357       .  A
C468        N469   1.357       .  A
C470        N820   1.358       .  A
C470        N471   1.359       .  A
N471        C817   1.359       .  A
C472        N477   1.354       .  A
C472        C618   1.474       .  S
N473        C823   1.359       .  A
N473        C474   1.359   1_655  A
C474        N826   1.358       .  A
N475        C476   1.356       .  A
C476        N477   1.351   1_455  A
C478        N483   1.360       .  A
C478        C570   1.482       .  S
N479        C829   1.361       .  A
N479        C480   1.356       .  A
C480        N832   1.355       .  A
N481        C482   1.356       .  A
C482        N483   1.356       .  A
C484        N489   1.358       .  A
C484        C669   1.482       .  S
N485        C835   1.356       .  A
N485        C486   1.355       .  A
C486        N838   1.359       .  A
N487        C488   1.360       .  A
C488        N489   1.359       .  A
N490        N491   1.323       .  A
N490        N496   1.316       .  A
N490       Mn519   2.211       .  S
N491        C498   1.354       .  A
N492        N494   1.317       .  A
N492        N493   1.318       .  A
N492       Mn508   2.191       .  S
N493        C499   1.349       .  A
N494        N495   1.324       .  A
N494       Mn519   2.220       .  S
N495        C499   1.354       .  A
N496        N497   1.315       .  A
N496       Mn508   2.181       .  S
N497        C498   1.346       .  A
C498        C537   1.455       .  S
C499        C539   1.462       .  S
N500        N506   1.315       .  A
N500        N501   1.323       .  A
N500       Mn530   2.201       .  S
N501        C509   1.352       .  A
N502        N503   1.317       .  A
N502        N504   1.315       .  A
N502       Mn508   2.193       .  S
N503        C510   1.349       .  A
N504        N505   1.322       .  A
N504       Mn530   2.194       .  S
N505        C510   1.351       .  A
N506        N507   1.317       .  A
N506       Mn508   2.190       .  S
N507        C509   1.349       .  A
Mn508      Cl532   2.546       .  S
C509        C551   1.456       .  S
C510        C549   1.454       .  S
N511        N512   1.324       .  A
N511        N517   1.316       .  A
N511       Mn519   2.215       .  S
N512        C520   1.354       .  A
N513        N515   1.316       .  A
N513        N514   1.317       .  A
N513       Mn531   2.187       .  S
N514        C521   1.348       .  A
N515        N516   1.325       .  A
N515       Mn519   2.226       .  S
N516        C521   1.356       .  A
N517        N518   1.317       .  A
N517       Mn531   2.191       .  S
N518        C520   1.349       .  A
Mn519      Cl532   2.544       .  S
C520        C545   1.461       .  S
C521        C543   1.465       .  S
N522        N523   1.320       .  A
N522        N528   1.315       .  A
N522       Mn530   2.192       .  S
N523        C533   1.349       .  A
N524        N525   1.316       .  A
N524        N526   1.315       .  A
N524       Mn531   2.185       .  S
N525        C534   1.348       .  A
N526        N527   1.319       .  A
N526       Mn530   2.184       .  S
N527        C534   1.348       .  A
N528        N529   1.318       .  A
N528       Mn531   2.192       .  S
N529        C533   1.349       .  A
Mn530      Cl532   2.544       .  S
Mn531      Cl532   2.547       .  S
C533        C557   1.450       .  S
C534        C555   1.444       .  S
C535        N536   1.357       .  A
C535        C642   1.482       .  S
N536        C537   1.356       .  A
C537        N538   1.357       .  A
C539        N889   1.358       .  A
C539        N540   1.359       .  A
N540        C886   1.360       .  A
C541        N542   1.360       .  A
C541        C597   1.485       .  S
N542        C543   1.359       .  A
C543        N544   1.359       .  A
C545        N895   1.359       .  A
C545        N546   1.357       .  A
N546        C892   1.358       .  A
C547        N548   1.356       .  A
C547        C573   1.479       .  S
N548        C549   1.355       .  A
C549        N550   1.358       .  A
C551        N901   1.357       .  A
C551        N552   1.355       .  A
N552        C898   1.357       .  A
C553        N558   1.357       .  A
C553        C690   1.472       .  S
N554        C904   1.355       .  A
N554        C555   1.352       .  A
C555        N907   1.354       .  A
N556        C557   1.355       .  A
C557        N558   1.353       .  A
C559        C560   1.398       .  A
C559        C564   1.403       .  A
C559        H575   1.083       .  S
C560        C561   1.404       .  A
C560        H576   1.084       .  S
C561        C571   1.402       .  A
C561        C562   1.411       .  A
C562        C563   1.409       .  A
C563        C564   1.411       .  A
C564        C572   1.401       .  A
C565        C914   1.411       .  A
C565        C574   1.399       .  A
C565        C566   1.402       .  A
C566        C567   1.396       .  A
C566        H577   1.084       .  S
C567        C568   1.403       .  A
C567        H578   1.083       .  S
C568        C913   1.411       .  A
C568        C569   1.400       .  A
C569        C921   1.407       .  A
C569        H579   1.084       .  S
C570        C571   1.409       .  A
C571        H580   1.084       .  S
C572        C573   1.408       .  A
C572        H581   1.084       .  S
C574        C924   1.406       .  A
C574        H582   1.084       .  S
C583        C584   1.401       .  A
C583        C588   1.405       .  A
C583        H599   1.084       .  S
C584        C585   1.405       .  A
C584        H600   1.083       .  S
C585        C595   1.407       .  A
C585        C937   1.412       .  A
C586        C592   1.411       .  A
C586        C587   1.414       .  A
C587        C589   1.412       .  A
C588        C938   1.411       .  A
C588        C596   1.406       .  A
C589        C598   1.404       .  A
C589        C590   1.403       .  A
C590        C591   1.399       .  A
C590        H601   1.083       .  S
C591        C592   1.403       .  A
C591        H602   1.084       .  S
C592        C593   1.403       .  A
C593        C594   1.407       .  A
C593        H603   1.084       .  S
C595        C945   1.410       .  A
C595        H604   1.084       .  S
C596        C948   1.410       .  A
C596        H605   1.084       .  S
C597        C598   1.407       .  A
C598        H606   1.084       .  S
C607        C608   1.396       .  A
C607        C612   1.403       .  A
C607        H623   1.084       .  S
C608        C609   1.403       .  A
C608        H624   1.084       .  S
C609        C619   1.397       .  A
C610        C960   1.411       .  A
C610        C616   1.412       .  A
C610        C611   1.408       .  A
C611        C613   1.412       .  A
C611        C963   1.410       .  A
C612        C620   1.397       .  A
C613        C622   1.402       .  A
C613        C614   1.403       .  A
C614        C615   1.399       .  A
C614        H625   1.083       .  S
C615        C616   1.403       .  A
C615        H626   1.083       .  S
C616        C617   1.402       .  A
C617        C969   1.404       .  A
C617        H627   1.084       .  S
C618        C619   1.406       .  A
C619        H628   1.084       .  S
C620        C621   1.407       .  A
C620        H629   1.084       .  S
C622        C972   1.404       .  A
C622        H630   1.084       .  S
C631        C632   1.400       .  A
C631        C636   1.404       .  A
C631        H647   1.083       .  S
C632        C633   1.404       .  A
C632        H648   1.084       .  S
C633        C643   1.404       .  A
C633        C634   1.411       .  A
C634        C635   1.412       .  A
C635        C636   1.411       .  A
C636        C644   1.405       .  A
C637        C986   1.411       .  A
C637        C646   1.402       .  A
C637        C638   1.403       .  A
C638        C639   1.398       .  A
C638        H649   1.084       .  S
C639        C640   1.403       .  A
C639        H650   1.083       .  S
C640        C985   1.412       .  A
C640        C641   1.403       .  A
C641        C993   1.406       .  A
C641        H651   1.084       .  S
C642        C643   1.409       .  A
C643        H652   1.084       .  S
C644        C645   1.409       .  A
C644        H653   1.084       .  S
C646        C996   1.408       .  A
C646        H654   1.084       .  S
C655        C656   1.400       .  A
C656        C657   1.404       .  A
C656        H672   1.083       .  S
C657        C667   1.405       .  A
C658       C1008   1.412       .  A
C658        C664   1.411       .  A
C658        C659   1.411       .  A
C659        C661   1.411       .  A
C659        C660   1.412       .  A
C660       C1006   1.404       .  A
C660        C668   1.405       .  A
C661       C1021   1.400       .  A
C661        C662   1.403       .  A
C662        C663   1.397       .  A
C662        H673   1.084       .  S
C663        C664   1.403       .  A
C663        H674   1.084       .  S
C664        C665   1.399       .  A
C665       C1017   1.407       .  A
C665        H675   1.084       .  S
C666        C667   1.407       .  A
C667        H676   1.084       .  S
C668       C1020   1.407       .  A
C668        H677   1.084       .  S
C669        C670   1.407       .  A
C670        H678   1.084       .  S
H671       C1006   1.083       .  S
C679        C680   1.398       .  A
C679        C684   1.404       .  A
C679        H695   1.084       .  S
C680        C681   1.404       .  A
C680        H696   1.083       .  S
C681        C691   1.399       .  A
C681       C1033   1.410       .  A
C682        C688   1.411       .  A
C682        C683   1.407       .  A
C683        C685   1.411       .  A
C684       C1034   1.411       .  A
C684        C692   1.401       .  A
C685        C694   1.396       .  A
C685        C686   1.402       .  A
C686        C687   1.395       .  A
C686        H697   1.083       .  S
C687        C688   1.402       .  A
C687        H698   1.084       .  S
C688        C689   1.396       .  A
C689        C690   1.404       .  A
C689        H699   1.084       .  S
C691       C1041   1.408       .  A
C691        H700   1.084       .  S
C692       C1044   1.408       .  A
C692        H701   1.084       .  S
C693        C694   1.405       .  A
C694        H702   1.084       .  S
C703        N708   1.358       .  A
C703       C1044   1.476       .  S
N704        C705   1.354       .  A
C705        N706   1.356   1_556  A
C705        C735   1.450       .  S
C707        N708   1.354       .  A
C707        C734   1.453       .  S
C709        N714   1.358       .  A
C709       C1017   1.479       .  S
N710        C711   1.354       .  A
C711        N712   1.358   1_556  A
C711        C758   1.455       .  S
C713        N714   1.360       .  A
C713        C759   1.460       .  S
N715        N716   1.318       .  A
N715        N721   1.316       .  A
N715       Mn744   2.198       .  S
N716        C723   1.350       .  A
N717        N719   1.316       .  A
N717        N718   1.322       .  A
N717       Mn733   2.197   1_545  S
N718        C724   1.351       .  A
N719        N720   1.315       .  A
N719       Mn744   2.189       .  S
N720        C724   1.348       .  A
N721        N722   1.323       .  A
N721       Mn733   2.210   1_545  S
N722        C723   1.353       .  A
C723        C768   1.461       .  S
C724        C770   1.452       .  S
N725        N731   1.315       .  A
N725        N726   1.320       .  A
N725       Mn755   2.197       .  S
N726        C734   1.350       .  A
N727        N728   1.317       .  A
N727        N729   1.315       .  A
N727       Mn733   2.184       .  S
N728        C735   1.348       .  A
N729        N730   1.321       .  A
N729       Mn755   2.200       .  S
N730        C735   1.351       .  A
N731        N732   1.318       .  A
N731       Mn733   2.193       .  S
N732        C734   1.350       .  A
Mn733      Cl757   2.548   1_565  S
N736        N737   1.324       .  A
N736        N742   1.316       .  A
N736       Mn744   2.218       .  S
N737        C745   1.355       .  A
N738        N740   1.316       .  A
N738        N739   1.318       .  A
N738       Mn756   2.190       .  S
N739        C746   1.349       .  A
N740        N741   1.323       .  A
N740       Mn744   2.211       .  S
N741        C746   1.353       .  A
N742        N743   1.317       .  A
N742       Mn756   2.187       .  S
N743        C745   1.348       .  A
Mn744      Cl757   2.544       .  S
C745        C764   1.460       .  S
C746        C762   1.459       .  S
N747        N748   1.315       .  A
N747        N753   1.315       .  A
N747       Mn755   2.180       .  S
N748        C758   1.347       .  A
N749        N750   1.324   1_565  A
N749        N751   1.315       .  A
N749       Mn756   2.214   1_565  S
N750        C759   1.354   1_545  A
N751        N752   1.317       .  A
N751       Mn755   2.187       .  S
N752        C759   1.349       .  A
N753        N754   1.324   1_565  A
N753       Mn756   2.207   1_565  S
N754        C758   1.353   1_545  A
Mn755      Cl757   2.543   1_565  S
Mn756      Cl757   2.547       .  S
C760        N765   1.359       .  A
C760        C996   1.483       .  S
N761        C762   1.357       .  A
N763        C764   1.358       .  A
C764        N765   1.358       .  A
C766        N771   1.353       .  A
C766        C972   1.473       .  S
N767        C768   1.359       .  A
C768        N769   1.359   1_556  A
C770        N771   1.351       .  A
N772        N773   1.320       .  A
N772        N778   1.317       .  A
N772       Mn801   2.199       .  S
N773        C780   1.350       .  A
N774        N776   1.316       .  A
N774        N775   1.319       .  A
N774       Mn790   2.197   1_655  S
N775        C781   1.350       .  A
N776        N777   1.321       .  A
N776       Mn801   2.201       .  S
N777        C781   1.351       .  A
N778        N779   1.320       .  A
N778       Mn790   2.205   1_655  S
N779        C780   1.351       .  A
C780        C831   1.458       .  S
C781        C833   1.456       .  S
N782        N788   1.316       .  A
N782        N783   1.318       .  A
N782       Mn812   2.194       .  S
N783        C791   1.349       .  A
N784        N785   1.325       .  A
N784        N786   1.316       .  A
N784       Mn790   2.214       .  S
N785        C792   1.354       .  A
N786        N787   1.316       .  A
N786       Mn812   2.188       .  S
N787        C792   1.348       .  A
N788        N789   1.325       .  A
N788       Mn790   2.220       .  S
N789        C791   1.355       .  A
Mn790      Cl814   2.549       .  S
C791        C839   1.464       .  S
C792        C837   1.460       .  S
N793        N794   1.316   1_455  A
N793        N799   1.315       .  A
N793       Mn801   2.186   1_455  S
N794        C802   1.348   1_655  A
N795        N797   1.316       .  A
N795        N796   1.323       .  A
N795       Mn813   2.210       .  S
N796        C803   1.353       .  A
N797        N798   1.319   1_455  A
N797       Mn801   2.194   1_455  S
N798        C803   1.350   1_655  A
N799        N800   1.321       .  A
N799       Mn813   2.194       .  S
N800        C802   1.350       .  A
Mn801      Cl814   2.546   1_655  S
C802        C827   1.450       .  S
C803        C825   1.460       .  S
N804        N805   1.324       .  A
N804        N810   1.316       .  A
N804       Mn812   2.217       .  S
N805        C815   1.354       .  A
N806        N807   1.318       .  A
N806        N808   1.315       .  A
N806       Mn813   2.192       .  S
N807        C816   1.349       .  A
N808        N809   1.323       .  A
N808       Mn812   2.211       .  S
N809        C816   1.353       .  A
N810        N811   1.317       .  A
N810       Mn813   2.182       .  S
N811        C815   1.347       .  A
Mn812      Cl814   2.545       .  S
Mn813      Cl814   2.549       .  S
C815        C821   1.458       .  S
C816        C819   1.461       .  S
C817        N818   1.360       .  A
C817        C945   1.486       .  S
N818        C819   1.357       .  A
C819        N820   1.357       .  A
C821        N822   1.358       .  A
C823        N828   1.353       .  A
C823        C969   1.473       .  S
N824        C825   1.360   1_655  A
N826        C827   1.356       .  A
C827        N828   1.350   1_455  A
C829        N834   1.359       .  A
C829        C921   1.482       .  S
N830        C831   1.356       .  A
N832        C833   1.355       .  A
C833        N834   1.356       .  A
C835        N840   1.358       .  A
C835       C1020   1.480       .  S
N836        C837   1.356       .  A
N838        C839   1.360       .  A
C839        N840   1.359       .  A
N841        N842   1.324       .  A
N841        N847   1.316       .  A
N841       Mn870   2.214       .  S
N842        C849   1.354       .  A
N843        N845   1.316       .  A
N843        N844   1.317       .  A
N843       Mn859   2.189       .  S
N844        C850   1.348       .  A
N845        N846   1.324       .  A
N845       Mn870   2.221       .  S
N846        C850   1.355       .  A
N847        N848   1.316       .  A
N847       Mn859   2.184       .  S
N848        C849   1.347       .  A
C849        C888   1.457       .  S
C850        C890   1.462       .  S
N851        N857   1.315       .  A
N851        N852   1.322       .  A
N851       Mn881   2.197       .  S
N852        C860   1.351       .  A
N853        N854   1.317       .  A
N853        N855   1.315       .  A
N853       Mn859   2.192       .  S
N854        C861   1.349       .  A
N855        N856   1.322       .  A
N855       Mn881   2.196       .  S
N856        C861   1.351       .  A
N857        N858   1.317       .  A
N857       Mn859   2.190       .  S
N858        C860   1.349       .  A
Mn859      Cl883   2.547       .  S
C860        C902   1.455       .  S
C861        C900   1.455       .  S
N862        N863   1.324       .  A
N862        N868   1.316       .  A
N862       Mn870   2.215       .  S
N863        C871   1.354       .  A
N864        N866   1.316       .  A
N864        N865   1.317       .  A
N864       Mn882   2.188       .  S
N865        C872   1.348       .  A
N866        N867   1.325       .  A
N866       Mn870   2.225       .  S
N867        C872   1.356       .  A
N868        N869   1.317       .  A
N868       Mn882   2.189       .  S
N869        C871   1.348       .  A
Mn870      Cl883   2.544       .  S
C871        C896   1.460       .  S
C872        C894   1.464       .  S
N873        N874   1.319       .  A
N873        N879   1.315       .  A
N873       Mn881   2.189       .  S
N874        C884   1.349       .  A
N875        N876   1.316       .  A
N875        N877   1.315       .  A
N875       Mn882   2.187       .  S
N876        C885   1.348       .  A
N877        N878   1.319       .  A
N877       Mn881   2.185       .  S
N878        C885   1.348       .  A
N879        N880   1.318       .  A
N879       Mn882   2.193       .  S
N880        C884   1.350       .  A
Mn881      Cl883   2.543       .  S
Mn882      Cl883   2.547       .  S
C884        C908   1.449       .  S
C885        C906   1.445       .  S
C886        N887   1.357       .  A
C886        C993   1.483       .  S
N887        C888   1.356       .  A
C888        N889   1.358       .  A
C890        N891   1.358       .  A
C892        N893   1.360       .  A
C892        C948   1.486       .  S
N893        C894   1.359       .  A
C894        N895   1.359       .  A
C896        N897   1.357       .  A
C898        N899   1.356       .  A
C898        C924   1.480       .  S
N899        C900   1.355       .  A
C900        N901   1.358       .  A
C902        N903   1.355       .  A
C904        N909   1.358       .  A
C904       C1041   1.473       .  S
N905        C906   1.352       .  A
N907        C908   1.354       .  A
C908        N909   1.354       .  A
C910        C911   1.399       .  A
C910        C915   1.404       .  A
C910        H926   1.083       .  S
C911        C912   1.404       .  A
C911        H927   1.084       .  S
C912        C922   1.402       .  A
C912        C913   1.411       .  A
C913        C914   1.410       .  A
C914        C915   1.411       .  A
C915        C923   1.402       .  A
C916        C925   1.399       .  A
C916        C917   1.403       .  A
C917        C918   1.397       .  A
C917        H928   1.084       .  S
C918        C919   1.403       .  A
C918        H929   1.083       .  S
C919        C920   1.400       .  A
C920        H930   1.084       .  S
C921        C922   1.409       .  A
C922        H931   1.084       .  S
C923        C924   1.409       .  A
C923        H932   1.084       .  S
C925        H933   1.084       .  S
C934        C935   1.401       .  A
C934        C939   1.405       .  A
C934        H950   1.084       .  S
C935        C936   1.405       .  A
C935        H951   1.083       .  S
C936        C946   1.406       .  A
C937        C943   1.411       .  A
C937        C938   1.413       .  A
C938        C940   1.411       .  A
C939        C947   1.406       .  A
C940        C949   1.402       .  A
C940        C941   1.403       .  A
C941        C942   1.398       .  A
C941        H952   1.083       .  S
C942        C943   1.403       .  A
C942        H953   1.084       .  S
C943        C944   1.401       .  A
C944        C945   1.407       .  A
C944        H954   1.084       .  S
C946        H955   1.084       .  S
C947        H956   1.084       .  S
C948        C949   1.407       .  A
C949        H957   1.084       .  S
C958        C959   1.395       .  A
C958        C963   1.402       .  A
C958        H974   1.084       .  S
C959        C960   1.402       .  A
C959        H975   1.084       .  S
C960        C970   1.396       .  A
C961        C967   1.412   1_554  A
C961        C962   1.409       .  A
C962        C964   1.412   1_554  A
C963        C971   1.396       .  A
C964        C973   1.404       .  A
C964        C965   1.403       .  A
C965        C966   1.400       .  A
C965        H976   1.083       .  S
C966        C967   1.404       .  A
C966        H977   1.083       .  S
C967        C968   1.404       .  A
C968        H978   1.084       .  S
C969        C970   1.406       .  A
C970        H979   1.084       .  S
C971        C972   1.406       .  A
C971        H980   1.084       .  S
C973        H981   1.084       .  S
C982        C983   1.400       .  A
C982        C987   1.404       .  A
C982        H998   1.083       .  S
C983        C984   1.404       .  A
C983        H999   1.084       .  S
C984        C994   1.403       .  A
C984        C985   1.411       .  A
C985        C986   1.412       .  A
C986        C987   1.412       .  A
C987        C995   1.404       .  A
C988        C997   1.402       .  A
C988        C989   1.403       .  A
C989        C990   1.398       .  A
C989       H1000   1.084       .  S
C990        C991   1.403       .  A
C990       H1001   1.083       .  S
C991        C992   1.403       .  A
C992       H1002   1.084       .  S
C993        C994   1.409       .  A
C994       H1003   1.084       .  S
C995        C996   1.408       .  A
C995       H1004   1.084       .  S
C997       H1005   1.084       .  S
C1006      C1007   1.400       .  A
C1007      C1008   1.404       .  A
C1007      H1023   1.083       .  S
C1008      C1018   1.405       .  A
C1009      C1015   1.411       .  A
C1009      C1010   1.412       .  A
C1010      C1012   1.411       .  A
C1010      C1011   1.411   1_556  A
C1011      C1019   1.405       .  A
C1012      C1013   1.403       .  A
C1013      C1014   1.398       .  A
C1013      H1024   1.084       .  S
C1014      C1015   1.403       .  A
C1014      H1025   1.084       .  S
C1015      C1016   1.400       .  A
C1016      H1026   1.084       .  S
C1017      C1018   1.406       .  A
C1018      H1027   1.084       .  S
C1019      H1028   1.084       .  S
C1020      C1021   1.407       .  A
C1021      H1029   1.084       .  S
C1030      C1031   1.398       .  A
C1030      C1035   1.403       .  A
C1030      H1046   1.084       .  S
C1031      C1032   1.403       .  A
C1031      H1047   1.083       .  S
C1032      C1042   1.399       .  A
C1033      C1039   1.411       .  A
C1033      C1034   1.407       .  A
C1034      C1036   1.410       .  A
C1035      C1043   1.400       .  A
C1036      C1045   1.395       .  A
C1036      C1037   1.402       .  A
C1037      C1038   1.394       .  A
C1037      H1048   1.083       .  S
C1038      C1039   1.401       .  A
C1038      H1049   1.084       .  S
C1039      C1040   1.395       .  A
C1040      C1041   1.404       .  A
C1040      H1050   1.084       .  S
C1042      H1051   1.084       .  S
C1043      H1052   1.084       .  S
C1044      C1045   1.405       .  A
C1045      H1053   1.084       .  S
