geometry optimzed in LAMMPS
_audit_creation_date              2020-12-01 
_audit_creation_method            'lammps2cif' 
_symmetry_space_group_name_H-M    'P1' 
_symmetry_Int_Tables_number       1 
_symmetry_cell_setting            triclinic 
loop_ 
_symmetry_equiv_pos_as_xyz 
  x,y,z 
_cell_length_a                    34.70124104 
_cell_length_b                    34.617809030860805 
_cell_length_c                    35.41756440465945 
_cell_angle_alpha                 90.81861979968745 
_cell_angle_beta                  89.44225956593354 
_cell_angle_gamma                 119.89667536296902 
loop_ 
_atom_site_label 
_atom_site_type_symbol 
_atom_site_fract_x 
_atom_site_fract_y 
_atom_site_fract_z 
_atom_site_charge 
C1          C  0.51284780  0.70995866  0.10608771     0.78900
N2          N  0.50922705  0.74209958  0.08800957    -0.79400
C3          C  0.50680073  0.77472059  0.10747501     0.81400
N4          N  0.50840693  0.77538610  0.14579232    -0.79300
C5          C  0.51207146  0.74309141  0.16431902     0.81500
N6          N  0.51348126  0.70994885  0.14436367    -0.81000
C7          C  0.50302439  0.73338410  0.32521214     0.78900
N8          N  0.50610154  0.73565685  0.28706562    -0.79400
C9          C  0.51071906  0.77209044  0.26905000     0.81400
N10         N  0.51232566  0.80638703  0.28944736    -0.79300
C11         C  0.51006106  0.80475162  0.32774453     0.81500
N12         N  0.50508630  0.76801882  0.34548471    -0.81000
C13         C  0.19695256  0.79720245  0.33108705     0.78900
N14         N  0.20374842  0.79803791  0.29332188    -0.79400
C15         C  0.17483646  0.76443573  0.27066237     0.81400
N16         N  0.13869823  0.72870842  0.28608905    -0.79300
C17         C  0.13117300  0.72753155  0.32402498     0.81500
N18         N  0.16035024  0.76204217  0.34632008    -0.81000
C19         C  0.20733240  0.78386477  0.11073965     0.78900
N20         N  0.17724857  0.75143762  0.08765834    -0.79400
C21         C  0.14170732  0.71480798  0.10206805     0.81400
N22         N  0.13599641  0.71082893  0.14000512    -0.79300
C23         C  0.16575322  0.74281956  0.16351926     0.81500
N24         N  0.20178602  0.77937973  0.14883872    -0.81000
C25         C  0.13919804  0.43797795  0.10710727     0.78900
N26         N  0.12947566  0.42345636  0.14318241    -0.79400
C27         C  0.15973701  0.41949400  0.16437085     0.81400
N28         N  0.19972615  0.42921015  0.14897293    -0.79300
C29         C  0.20964365  0.44388794  0.11284585     0.81500
N30         N  0.17943154  0.44851369  0.09232960    -0.81000
C31         C  0.12597091  0.39170518  0.32313353     0.78900
N32         N  0.15794855  0.39229830  0.34536828    -0.79400
C33         C  0.19634055  0.39782205  0.33000897     0.81400
N34         N  0.20242476  0.40224959  0.29206201    -0.79300
C35         C  0.17046076  0.40090061  0.26947323     0.81500
N36         N  0.13251320  0.39643170  0.28518308    -0.81000
C37         C  0.73516077  0.24430810  0.32801702     0.78900
N38         N  0.69813604  0.21808634  0.34866093    -0.79400
C39         C  0.66456123  0.17958199  0.33425924     0.81400
N40         N  0.66781819  0.16733318  0.29842059    -0.79300
C41         C  0.70406159  0.19308438  0.27695353     0.81500
N42         N  0.73819593  0.23164483  0.29189061    -0.81000
C43         C  0.76714277  0.21897701  0.11219910     0.78900
N44         N  0.76731166  0.22385304  0.15013477    -0.79400
C45         C  0.73417732  0.19336930  0.17181326     0.81400
N46         N  0.69942381  0.15695042  0.15509198    -0.79300
C47         C  0.69902132  0.15099778  0.11675237     0.81500
N48         N  0.73299104  0.18239958  0.09563019    -0.81000
C49         C  0.68497329  0.54203477  0.10096666     0.78900
N50         N  0.72199107  0.54708035  0.08302835    -0.79400
C51         C  0.75776172  0.55254313  0.10265682     0.81400
N52         N  0.75625256  0.55255460  0.14093356    -0.79300
C53         C  0.71977447  0.54798352  0.15946426     0.81500
N54         N  0.68407729  0.54264705  0.13940662    -0.81000
C55         C  0.70895004  0.54177043  0.32020269     0.78900
N56         N  0.71288972  0.54506364  0.28215405    -0.79400
C57         C  0.74410242  0.53905515  0.26380551     0.81400
N58         N  0.77096324  0.52854224  0.28385316    -0.79300
C59         C  0.76642087  0.52409490  0.32209087     0.81500
N60         N  0.73553031  0.53107260  0.33989740    -0.81000
C61         C  0.39679783  0.16441075  0.33427089     0.78900
N62         N  0.39511029  0.19980533  0.34939995    -0.79400
C63         C  0.38880517  0.22806018  0.32752301     0.81400
N64         N  0.38438543  0.22073472  0.28958625    -0.79300
C65         C  0.38546565  0.18505267  0.27386959     0.81500
N66         N  0.39167192  0.15698208  0.29634509    -0.81000
C67         C  0.36462918  0.15452694  0.11240464     0.78900
N68         N  0.36248028  0.18591728  0.09131250    -0.79400
C69         C  0.36543991  0.22292453  0.10780754     0.81400
N70         N  0.37023288  0.22840750  0.14580970    -0.79300
C71         C  0.37159334  0.19703756  0.16740596     0.81500
N72         N  0.36940094  0.16036960  0.15056221    -0.81000
O73         O  0.44075369  0.56305919  0.42743084    -0.81400
O74         O  0.45797961  0.39734733  0.42402033    -0.81400
O75         O  0.56321246  0.54875601  0.43493303    -0.81400
O76         O  0.34019422  0.40873011  0.45324939    -0.81400
O77         O  0.53212561  0.48094581  0.40841471    -0.81500
O78         O  0.37636904  0.47553635  0.42581207    -0.81400
O79         O  0.40513403  0.41182569  0.40875146    -0.81400
O80         O  0.50121973  0.56551056  0.41079294    -0.81500
C81         C  0.47401736  0.57949550  0.40713864     1.08300
C82         C  0.42388436  0.38851643  0.40517537     1.08200
C83         C  0.56290099  0.52162630  0.40967197     1.08300
C84         C  0.34120997  0.43650174  0.42945933     1.08200
O85         O  0.36227779  0.49115782  0.99188625    -0.81400
O86         O  0.52281924  0.45871183  0.98532240    -0.81500
O87         O  0.51578772  0.57670844  0.97718214    -0.81400
O88         O  0.36886657  0.36317082  0.98419590    -0.81400
O89         O  0.43902881  0.38965244  0.00207489    -0.81500
O90         O  0.44638553  0.53882564  0.00070647    -0.81400
O91         O  0.36470139  0.43487293  0.01227374    -0.81400
O92         O  0.50190767  0.50250928  0.01123325    -0.81500
Co93       Co  0.43180848  0.51552387  0.45853433     1.51500
Co94       Co  0.50111576  0.44859086  0.45468464     1.51700
Co95       Co  0.50928148  0.54411929  0.46198540     1.51600
Co96       Co  0.40270218  0.43840842  0.45911047     1.51500
O97         O  0.46646052  0.48141295  0.45470202    -1.43400
C98         C  0.35132883  0.46292182  0.01668846     1.08200
C99         C  0.52789890  0.48695122  0.01031918     1.08300
C100        C  0.48648052  0.57287603  0.00140497     1.08200
C101        C  0.39774664  0.36249933  0.00571369     1.08200
O102        O  0.03473326  0.55896107  0.97811978    -0.81400
O103        O  0.88225613  0.40761573  0.03290169    -0.81400
O104        O  0.89963672  0.53938613  0.98780574    -0.81400
O105        O  0.97601025  0.42820705  0.00923362    -0.81400
O106        O  0.88504239  0.48964529  0.03153724    -0.81500
O107        O  0.03249820  0.48201954  0.98208855    -0.81400
O108        O  0.89513046  0.36900211  0.99037626    -0.81400
O109        O  0.97929117  0.55891305  0.00546762    -0.81500
C110        C  0.02013704  0.57396688  0.00342450     1.08300
C111        C  0.88008592  0.37145470  0.02245801     1.08200
C112        C  0.88381747  0.52352528  0.02010085     1.08300
C113        C  0.01697621  0.45423736  0.00828630     1.08200
O114        O  0.99702949  0.45042318  0.40580578    -0.81400
O115        O  0.85681831  0.46567343  0.45239207    -0.81500
O116        O  0.97897504  0.58210255  0.43504539    -0.81400
O117        O  0.91136797  0.40627376  0.41451820    -0.81400
O118        O  0.85522642  0.38732672  0.45290802    -0.81500
O119        O  0.99961448  0.53828490  0.40523559    -0.81400
O120        O  0.97506957  0.38651990  0.43567466    -0.81400
O121        O  0.91389071  0.49870421  0.41450091    -0.81500
Co122      Co  0.01120179  0.50123124  0.44478929     1.51500
Co123      Co  0.87904773  0.43813731  0.49008594     1.51700
Co124      Co  0.95296400  0.52590795  0.45909514     1.51600
Co125      Co  0.95138350  0.41948858  0.45926559     1.51500
O126        O  0.94537827  0.46974702  0.47513875    -1.43400
C127        C  0.99717450  0.41311692  0.40924693     1.08200
C128        C  0.87287482  0.48272010  0.42048586     1.08300
C129        C  0.00105306  0.57648806  0.40874051     1.08200
C130        C  0.86987805  0.38508207  0.42049423     1.08200
O131        O  0.42104308  0.86338546  0.00434133    -0.81400
O132        O  0.43167991  0.02775614  0.03958732    -0.81400
O133        O  0.54782095  0.01082270  0.99795622    -0.81400
O134        O  0.34868283  0.92999783  0.99635936    -0.81400
O135        O  0.50840281  0.02211210  0.04029891    -0.81500
O136        O  0.39433578  0.92023392  0.03319641    -0.81400
O137        O  0.38477322  0.01950303  0.99478836    -0.81400
O138        O  0.48587227  0.92474079  0.01311192    -0.81500
C139        C  0.45911887  0.88275238  0.01928874     1.08300
C140        C  0.39926045  0.03144959  0.02829427     1.08200
C141        C  0.54494579  0.02516920  0.03055115     1.08300
C142        C  0.35638362  0.91600099  0.02709524     1.08200
O143        O  0.37397501  0.92772445  0.42448642    -0.81400
O144        O  0.52447039  0.07797923  0.46852947    -0.81500
O145        O  0.52918993  0.96086293  0.44571323    -0.81400
O146        O  0.41066197  0.01228719  0.43230191    -0.81400
O147        O  0.44384092  0.07054607  0.46969696    -0.81500
O148        O  0.46298835  0.93721471  0.41970122    -0.81400
O149        O  0.32883919  0.94510463  0.45572360    -0.81400
O150        O  0.50337062  0.02176232  0.42961628    -0.81500
Co151      Co  0.41505623  0.91912625  0.46118274     1.51500
Co152      Co  0.47491885  0.05160766  0.50651927     1.51700
Co153      Co  0.49616367  0.98279655  0.47283535     1.51600
Co154      Co  0.38666487  0.97319677  0.47735477     1.51500
O155        O  0.44516045  0.98487808  0.49187267    -1.43400
C156        C  0.33517033  0.92405388  0.42898661     1.08200
C157        C  0.52565925  0.06308352  0.43593434     1.08300
C158        C  0.50028956  0.93712029  0.42095051     1.08200
C159        C  0.42637120  0.05354302  0.43799682     1.08200
C160        C  0.34437447  0.24957309  0.05050302    -0.14600
C161        C  0.36867235  0.25912605  0.08417650     0.07500
C162        C  0.39922646  0.30360203  0.09357979    -0.14600
C163        C  0.40734412  0.33768248  0.06862107    -0.14600
C164        C  0.38405636  0.32792372  0.03441371     0.07500
C165        C  0.35148380  0.28389668  0.02606588    -0.14600
H166        H  0.32065338  0.21547818  0.04273477     0.11500
H167        H  0.41862050  0.31173765  0.11923776     0.11500
H168        H  0.43272792  0.37151710  0.07549970     0.11500
H169        H  0.33349208  0.27573920  0.99964719     0.11500
C170        C  0.35958856  0.07488636  0.03547281    -0.14600
C171        C  0.38277017  0.05584404  0.05210568     0.07500
C172        C  0.39509569  0.06552081  0.09026837    -0.14600
C173        C  0.38672460  0.09553174  0.11072739    -0.14600
C174        C  0.36643821  0.11702873  0.09321355     0.07500
C175        C  0.35183469  0.10535753  0.05572109    -0.14600
H176        H  0.35391347  0.07985096  0.51011507     0.11500
H177        H  0.41296996  0.05131387  0.10391700     0.11500
H178        H  0.39836764  0.10374522  0.13951057     0.11500
H179        H  0.33575252  0.12105953  0.04147523     0.11500
C180        C  0.37647845  0.20438757  0.20876148    -0.17700
C181        C  0.38060413  0.17666917  0.23253631    -0.32900
H182        H  0.37688082  0.23391113  0.21985656     0.11300
H183        H  0.38069224  0.14735546  0.22154370     0.11900
C184        C  0.39008912  0.30697155  0.40302202    -0.14600
C185        C  0.40416579  0.34653875  0.38302171     0.07500
C186        C  0.40853365  0.34584959  0.34361020    -0.14600
C187        C  0.40082678  0.30647105  0.32481194    -0.14600
C188        C  0.38944917  0.26758879  0.34536426     0.07500
C189        C  0.38267241  0.26803786  0.38449853    -0.14600
H190        H  0.38741185  0.30692664  0.43349290     0.11500
H191        H  0.42057648  0.37628740  0.32774730     0.11500
H192        H  0.40645000  0.30724126  0.29466072     0.11500
H193        H  0.37353179  0.23870901  0.40123337     0.11500
C194        C  0.42450688  0.15197131  0.39510364    -0.14600
C195        C  0.40587381  0.13573696  0.35931502     0.07500
C196        C  0.39586024  0.09239521  0.34854990    -0.14600
C197        C  0.40313754  0.06555640  0.37366043    -0.14600
C198        C  0.42116130  0.08186414  0.40969692     0.07500
C199        C  0.43225473  0.12559939  0.41978492    -0.14600
H200        H  0.43311849  0.18530513  0.40426874     0.11500
H201        H  0.38151058  0.07892927  0.32116591     0.11500
H202        H  0.39416166  0.03193660  0.36508279     0.11500
H203        H  0.44612599  0.13933939  0.44725214     0.11500
C204        C  0.68025825  0.56568195  0.37531698    -0.14600
C205        C  0.67293389  0.54473867  0.33978893     0.07500
C206        C  0.62973254  0.52205962  0.32505789    -0.14600
C207        C  0.59382099  0.51684389  0.34703951    -0.14600
C208        C  0.60079443  0.53558936  0.38352076     0.07500
C209        C  0.64446302  0.56188594  0.39673516    -0.14600
H210        H  0.71345347  0.58355801  0.38703266     0.11500
H211        H  0.62338801  0.50558596  0.29772142     0.11500
H212        H  0.56041362  0.49647526  0.33625358     0.11500
H213        H  0.65066532  0.57674506  0.42470474     0.11500
C214        C  0.77584079  0.48859833  0.37942194    -0.14600
C215        C  0.79284157  0.50975563  0.34472325     0.07500
C216        C  0.83525617  0.51822671  0.33325880    -0.14600
C217        C  0.86097304  0.50796188  0.35715922    -0.14600
C218        C  0.84440658  0.48837290  0.39256819     0.07500
C219        C  0.80107044  0.47780514  0.40287744    -0.14600
H220        H  0.74297476  0.48089607  0.38887901     0.11500
H221        H  0.84915083  0.53430684  0.30664892     0.11500
H222        H  0.89430417  0.51652820  0.34838869     0.11500
H223        H  0.78712881  0.46265771  0.42978865     0.11500
C224        C  0.64468307  0.52204117  0.03957130    -0.14600
C225        C  0.64499284  0.53163873  0.07827350     0.07500
C226        C  0.60641213  0.52889462  0.09454376    -0.14600
C227        C  0.56820547  0.51592465  0.07251209    -0.14600
C228        C  0.56788388  0.50462019  0.03427060     0.07500
C229        C  0.60669652  0.50843502  0.01804020    -0.14600
H230        H  0.67354437  0.52379810  0.02581804     0.11500
H231        H  0.60557770  0.53616037  0.12424155     0.11500
H232        H  0.53860457  0.51324829  0.08555878     0.11500
H233        H  0.63723241  0.54289070  0.48603541     0.11500
C234        C  0.71777312  0.54655019  0.20111824    -0.17700
C235        C  0.74769903  0.54236223  0.22219347    -0.32900
H236        H  0.68995689  0.54735005  0.21463604     0.11300
H237        H  0.77468268  0.54003838  0.20863322     0.11900
C238        C  0.82493023  0.54331571  0.10157024    -0.14600
C239        C  0.79569366  0.55331336  0.08243101     0.07500
C240        C  0.80050984  0.55975272  0.04317770    -0.14600
C241        C  0.83201956  0.55362734  0.02318130    -0.14600
C242        C  0.85869724  0.54015187  0.04203767     0.07500
C243        C  0.85576190  0.53625747  0.08144660    -0.14600
H244        H  0.82224531  0.53831135  0.13175638     0.11500
H245        H  0.77867959  0.56778104  0.02762783     0.11500
H246        H  0.83336679  0.55639198  0.99274914     0.11500
H247        H  0.87609940  0.52590460  0.09653841     0.11500
C248        C  0.61790007  0.09129744  0.11385428    -0.14600
C249        C  0.66037714  0.11317361  0.09713680     0.07500
C250        C  0.66490200  0.10129940  0.05981299    -0.14600
C251        C  0.62778720  0.07027163  0.03907899    -0.14600
C252        C  0.58492244  0.05071651  0.05489680     0.07500
C253        C  0.58059948  0.06076840  0.09285779    -0.14600
H254        H  0.61310728  0.09950951  0.14245109     0.11500
H255        H  0.69715362  0.11715544  0.04607151     0.11500
H256        H  0.63239290  0.06354072  0.00995866     0.11500
H257        H  0.54802853  0.04625252  0.10595350     0.11500
C258        C  0.82787660  0.29815124  0.10672166    -0.14600
C259        C  0.80088499  0.25626211  0.08942514     0.07500
C260        C  0.80402121  0.25195055  0.05020272    -0.14600
C261        C  0.83198586  0.28919237  0.02857521    -0.14600
C262        C  0.85653825  0.33142565  0.04579083     0.07500
C263        C  0.85496945  0.33540940  0.08504189    -0.14600
H264        H  0.82655682  0.30276604  0.13687131     0.11500
H265        H  0.78384188  0.22014072  0.03607384     0.11500
H266        H  0.83258642  0.28543400  0.99822769     0.11500
H267        H  0.87387674  0.36763801  0.09889146     0.11500
C268        C  0.61660332  0.16755231  0.39102385    -0.14600
C269        C  0.62558343  0.15058815  0.35793474     0.07500
C270        C  0.59829760  0.10521531  0.34874497    -0.14600
C271        C  0.56427359  0.07692958  0.37323249    -0.14600
C272        C  0.55673102  0.09357408  0.40721721     0.07500
C273        C  0.58244206  0.13940286  0.41531185    -0.14600
H274        H  0.63662595  0.20247648  0.39861124     0.11500
H275        H  0.60435146  0.09116850  0.32340106     0.11500
H276        H  0.54503949  0.04175721  0.36624548     0.11500
H277        H  0.57724818  0.15331966  0.44114443     0.11500
C278        C  0.70382591  0.17897018  0.23719313    -0.17700
C279        C  0.73614615  0.20360519  0.21271507    -0.32900
H280        H  0.67497583  0.14846973  0.22740779     0.11300
H281        H  0.76474306  0.23427439  0.22260182     0.11900
C282        C  0.75956641  0.30621450  0.37509404    -0.15500
C283        C  0.77112905  0.28566925  0.34614928     0.07500
C284        C  0.81659724  0.30230219  0.33834993    -0.14600
C285        C  0.84951955  0.33658658  0.36103607    -0.14600
C286        C  0.83737943  0.35478775  0.39166566     0.07500
C287        C  0.79204251  0.34020235  0.39734694    -0.14600
H288        H  0.72496355  0.29485676  0.38152538     0.11500
H289        H  0.82658537  0.28718502  0.31624835     0.11500
H290        H  0.88419369  0.34715827  0.35586208     0.11500
H291        H  0.78138698  0.35391643  0.42014004     0.11500
C292        C  0.27722409  0.43107492  0.34264173    -0.14600
C293        C  0.23308711  0.40404580  0.35460627     0.07500
C294        C  0.22471890  0.38566712  0.39093376    -0.14600
C295        C  0.25998006  0.39482563  0.41511013    -0.14600
C296        C  0.30387951  0.42358911  0.40361763     0.07500
C297        C  0.31226159  0.44109804  0.36706868    -0.14600
H298        H  0.28466602  0.44585406  0.31489236     0.11500
H299        H  0.19093609  0.36459589  0.40072635     0.11500
H300        H  0.25295123  0.38082528  0.44315464     0.11500
H301        H  0.34601336  0.46287017  0.35744833     0.11500
C302        C  0.06800067  0.36590353  0.37347181    -0.14600
C303        C  0.08703563  0.39106120  0.34090037     0.07500
C304        C  0.07200684  0.41949642  0.32815642    -0.14600
C305        C  0.04079615  0.42515437  0.34927914    -0.14600
C306        C  0.02332711  0.40155107  0.38292606     0.07500
C307        C  0.03600732  0.37063516  0.39399536    -0.14600
H308        H  0.07903252  0.34371697  0.38376677     0.11500
H309        H  0.08649328  0.43948842  0.30321893     0.11500
H310        H  0.03170624  0.44924664  0.34012467     0.11500
H311        H  0.02333639  0.35212755  0.41989980     0.11500
C312        C  0.14945590  0.40763660  0.20451470    -0.17700
C313        C  0.17905776  0.40742753  0.22850114    -0.32900
H314        H  0.11734128  0.40130613  0.21497705     0.11300
H315        H  0.21124941  0.41387429  0.21814130     0.11900
C316        C  0.26722382  0.42291828  0.09647677    -0.14600
C317        C  0.25205418  0.45364573  0.09486598     0.07500
C318        C  0.27428350  0.49088445  0.07155087    -0.14600
C319        C  0.30917081  0.49564265  0.04840477    -0.14600
C320        C  0.32202326  0.46274146  0.04756131     0.07500
C321        C  0.30177584  0.42726215  0.07277478    -0.14600
H322        H  0.25024623  0.39377533  0.11410898     0.11500
H323        H  0.26333937  0.51516109  0.07003453     0.11500
H324        H  0.32427910  0.52383950  0.02948893     0.11500
H325        H  0.31084079  0.40157998  0.07259403     0.11500
C326        C  0.12283111  0.47581991  0.05581620    -0.14600
C327        C  0.10707499  0.44341444  0.08401602     0.07500
C328        C  0.06095708  0.41586008  0.08883706    -0.14600
C329        C  0.03123987  0.41971734  0.06473947    -0.14600
C330        C  0.04726197  0.45155766  0.03588137     0.07500
C331        C  0.09333411  0.48008479  0.03222880    -0.14600
H332        H  0.15820349  0.49788032  0.05181568     0.11500
H333        H  0.04801616  0.39055671  0.11036869     0.11500
H334        H  0.99585206  0.39730887  0.06823732     0.11500
H335        H  0.11695608  0.50428856  0.50694555     0.11500
C336        C  0.12360155  0.67409370  0.04035466    -0.14600
C337        C  0.11011399  0.67919731  0.07669402     0.07500
C338        C  0.06653037  0.64955422  0.08873372    -0.14600
C339        C  0.03691853  0.61546724  0.06474184    -0.14600
C340        C  0.05082051  0.60990656  0.02877360     0.07500
C341        C  0.09434196  0.63946003  0.01674130    -0.14600
H342        H  0.15704321  0.69641016  0.03038926     0.11500
H343        H  0.05525571  0.65293525  0.11654230     0.11500
H344        H  0.00338560  0.59305654  0.07447928     0.11500
H345        H  0.10557252  0.63607112  0.98890061     0.11500
C346        C  0.23890127  0.84063058  0.06036485    -0.14600
C347        C  0.24541078  0.82318688  0.09364750     0.07500
C348        C  0.28871683  0.84063310  0.10770357    -0.14600
C349        C  0.32518726  0.87286701  0.08719198    -0.14600
C350        C  0.31870619  0.88872033  0.05279291     0.07500
C351        C  0.27501125  0.87334362  0.04040456    -0.14600
H352        H  0.20575075  0.82785831  0.04908500     0.11500
H353        H  0.29449759  0.82746909  0.13322922     0.11500
H354        H  0.35846048  0.88396835  0.09742129     0.11500
H355        H  0.32864952  0.81290383  0.53372118     0.11500
C356        C  0.08068374  0.64461322  0.32988841    -0.14600
C357        C  0.09306108  0.68825709  0.34167988     0.07500
C358        C  0.07124669  0.69418546  0.37287163    -0.14600
C359        C  0.03908784  0.65751956  0.39288288    -0.14600
C360        C  0.02864668  0.61389267  0.38278000     0.07500
C361        C  0.04917233  0.60778355  0.35055676    -0.14600
H362        H  0.09712318  0.63911436  0.30602021     0.11500
H363        H  0.07994542  0.72744792  0.38242726     0.11500
H364        H  0.02416048  0.66358638  0.41755411     0.11500
H365        H  0.04201660  0.57465376  0.34207077     0.11500
C366        C  0.18392507  0.76820891  0.22970001    -0.17700
C367        C  0.15740671  0.73729733  0.20457904    -0.32900
H368        H  0.21322680  0.79815053  0.21993729     0.11300
H369        H  0.12800208  0.70738977  0.21422943     0.11900
C370        C  0.27562150  0.85605337  0.34266391    -0.14600
C371        C  0.23125661  0.83268789  0.35525919     0.07500
C372        C  0.22088207  0.84245411  0.39129195    -0.14600
C373        C  0.25445852  0.87435539  0.41454052    -0.14600
C374        C  0.29903335  0.89619979  0.40242114     0.07500
C375        C  0.30917177  0.88703844  0.36615729    -0.14600
H376        H  0.28475385  0.84914699  0.31512788     0.11500
H377        H  0.18695702  0.82505424  0.40164571     0.11500
H378        H  0.24588500  0.88041322  0.44261831     0.11500
H379        H  0.34327323  0.90320524  0.35621597     0.11500
C380        C  0.46710714  0.67864436  0.37602498    -0.14600
C381        C  0.49489898  0.69267961  0.34439714     0.07500
C382        C  0.51440449  0.66763120  0.33153681    -0.14600
C383        C  0.50792300  0.63010354  0.35143960    -0.14600
C384        C  0.48071508  0.61675725  0.38348182     0.07500
C385        C  0.45967702  0.64088447  0.39506553    -0.14600
H386        H  0.45107541  0.69690087  0.38604859     0.11500
H387        H  0.53566872  0.67790249  0.30683804     0.11500
H388        H  0.52407999  0.61179399  0.34200145     0.11500
H389        H  0.43839600  0.63145965  0.41980814     0.11500
C390        C  0.48997027  0.86434814  0.33658111    -0.14600
C391        C  0.51136156  0.84186637  0.34987860     0.07500
C392        C  0.53257715  0.85403615  0.38513273    -0.14600
C393        C  0.53164656  0.88754447  0.40699789    -0.14600
C394        C  0.50835279  0.90848582  0.39454855     0.07500
C395        C  0.48779548  0.89685200  0.35899799    -0.14600
H396        H  0.47320786  0.85536990  0.30951293     0.11500
H397        H  0.54941865  0.83730618  0.39590235     0.11500
H398        H  0.54711266  0.89537442  0.43462681     0.11500
H399        H  0.46927475  0.91217242  0.34896975     0.11500
C400        C  0.53021194  0.65077582  0.02416787    -0.14600
C401        C  0.49829393  0.60651816  0.03138631     0.07500
C402        C  0.47534814  0.59556696  0.06611199    -0.14600
C403        C  0.48267076  0.62917069  0.09228644    -0.14600
C404        C  0.51220531  0.67384462  0.08354226     0.07500
C405        C  0.53658442  0.68429843  0.04974842    -0.14600
H406        H  0.54823250  0.65984535  0.99760141     0.11500
H407        H  0.45081851  0.56142805  0.07236862     0.11500
H408        H  0.46319403  0.62059646  0.11810615     0.11500
H409        H  0.55932623  0.71862082  0.04252571     0.11500
C410        C  0.46300171  0.78461346  0.05831956    -0.14600
C411        C  0.49516717  0.80392910  0.08671215     0.07500
C412        C  0.51567379  0.85002241  0.09365949    -0.14600
C413        C  0.50460550  0.87651508  0.07159089    -0.14600
C414        C  0.47199532  0.85670483  0.04333693     0.07500
C415        C  0.45126581  0.81055949  0.03717967    -0.14600
H416        H  0.44658322  0.74910809  0.05259001     0.11500
H417        H  0.54076625  0.86549195  0.11539075     0.11500
H418        H  0.52107342  0.91211094  0.07673854     0.11500
H419        H  0.43886443  0.81892837  0.50695606     0.11500
C420        C  0.51251023  0.77433189  0.22751278    -0.17700
C421        C  0.51207683  0.74188998  0.20588978    -0.32900
H422        H  0.51379963  0.80308795  0.21454228     0.11300
H423        H  0.51136797  0.71339698  0.21888087     0.11900
C424        C  0.51836457  0.73101462  0.60931173     0.78900
N425        N  0.51263091  0.76019374  0.58834071    -0.79400
C426        C  0.50973369  0.79409483  0.60491514     0.81400
N427        N  0.51267612  0.79911499  0.64281520    -0.79300
C428        C  0.51812438  0.77036634  0.66449079     0.81500
N429        N  0.52055524  0.73560637  0.64780754    -0.81000
C430        C  0.49597705  0.71336512  0.82744220     0.78900
N431        N  0.50848556  0.71744807  0.79094909    -0.79400
C432        C  0.51740563  0.75409626  0.77140489     0.81400
N433        N  0.51485734  0.78825425  0.78910766    -0.79300
C434        C  0.50274522  0.78456095  0.82636411     0.81500
N435        N  0.49259913  0.74664847  0.84502231    -0.81000
C436        C  0.21150296  0.77721466  0.83627436     0.78900
N437        N  0.21378786  0.78299466  0.79839479    -0.79400
C438        C  0.17881686  0.75652647  0.77597932     0.81400
N439        N  0.14077124  0.72353793  0.79165866    -0.79300
C440        C  0.13770369  0.71794423  0.82976218     0.81500
N441        N  0.17323759  0.74476746  0.85188411    -0.81000
C442        C  0.21231969  0.76922232  0.61724210     0.78900
N443        N  0.18422821  0.73396702  0.59555402    -0.79400
C444        C  0.14573699  0.70089386  0.60988831     0.81400
N445        N  0.13559241  0.70265924  0.64670591    -0.79300
C446        C  0.16387967  0.73725408  0.66910435     0.81500
N447        N  0.20219570  0.77097285  0.65419089    -0.81000
C448        C  0.15404495  0.44369004  0.60614242     0.78900
N449        N  0.14762869  0.42834587  0.64241626    -0.79400
C450        C  0.18042576  0.42419452  0.66014838     0.81400
N451        N  0.21847003  0.43455278  0.64141692    -0.79300
C452        C  0.22515310  0.45017158  0.60585975     0.81500
N453        N  0.19313505  0.45487004  0.58855724    -0.81000
C454        C  0.10663864  0.38788126  0.82188102     0.78900
N455        N  0.13965013  0.38604410  0.84039095    -0.79400
C456        C  0.17651864  0.39190446  0.82170153     0.81400
N457        N  0.18001536  0.39954814  0.78360180    -0.79300
C458        C  0.14595657  0.40017871  0.76481573     0.81500
N459        N  0.11015460  0.39506441  0.78434185    -0.81000
C460        C  0.73475991  0.24586253  0.83003257     0.78900
N461        N  0.69868458  0.21643521  0.85012119    -0.79400
C462        C  0.66796755  0.17699570  0.83476035     0.81400
N463        N  0.67306572  0.16711526  0.79860878    -0.79300
C464        C  0.70853110  0.19618084  0.77784330     0.81500
N465        N  0.73984120  0.23559832  0.79368651    -0.81000
C466        C  0.77801078  0.22413684  0.61461281     0.78900
N467        N  0.77814206  0.22962430  0.65258947    -0.79400
C468        C  0.74320785  0.20091164  0.67392589     0.81400
N469        N  0.70701967  0.16655379  0.65688651    -0.79300
C470        C  0.70653007  0.16037909  0.61875181     0.81500
N471        N  0.74216588  0.18941513  0.59789587    -0.81000
C472        C  0.70539631  0.56134132  0.60073757     0.78900
N473        N  0.74100365  0.56146267  0.58431356    -0.79400
C474        C  0.77029760  0.55544011  0.60508064     0.81400
N475        N  0.76320328  0.54864001  0.64301773    -0.79300
C476        C  0.72768592  0.54899609  0.65969346     0.81500
N477        N  0.69914053  0.55513458  0.63836975    -0.81000
C478        C  0.68624399  0.51634739  0.81812457     0.78900
N479        N  0.69398087  0.52290627  0.78026799    -0.79400
C480        C  0.73013707  0.52286453  0.76442136     0.81400
N481        N  0.75748820  0.51534672  0.78629491    -0.79300
C482        C  0.74946773  0.50806046  0.82371436     0.81500
N483        N  0.71414879  0.50899699  0.83939457    -0.81000
C484        C  0.41914254  0.17702920  0.83207322     0.78900
N485        N  0.40483088  0.20391407  0.84744559    -0.79400
C486        C  0.39370635  0.22838787  0.82511346     0.81400
N487        N  0.39748455  0.22635258  0.78729651    -0.79300
C488        C  0.41129147  0.19954808  0.77137437     0.81500
N489        N  0.42174696  0.17445028  0.79374786    -0.81000
C490        C  0.38242032  0.17331035  0.61359373     0.78900
N491        N  0.38485877  0.20674085  0.59222114    -0.79400
C492        C  0.39631287  0.24700259  0.60814092     0.81400
N493        N  0.40514858  0.25361565  0.64572966    -0.79300
C494        C  0.40248957  0.22020294  0.66720205     0.81500
N495        N  0.39137781  0.18040403  0.65096841    -0.81000
O496        O  0.42123795  0.54246772  0.92952645    -0.81400
O497        O  0.42403892  0.37049735  0.92458768    -0.81400
O498        O  0.53747490  0.51708174  0.93371216    -0.81400
O499        O  0.31196112  0.39193798  0.95017806    -0.81400
O500        O  0.50305134  0.44911508  0.90804158    -0.81500
O501        O  0.35321037  0.45856523  0.92397303    -0.81400
O502        O  0.37650461  0.39180561  0.90788951    -0.81400
O503        O  0.47696482  0.53721155  0.91002144    -0.81500
C504        C  0.45308391  0.55527108  0.90783320     1.08300
C505        C  0.39227838  0.36595200  0.90454907     1.08200
C506        C  0.53563207  0.48896373  0.90874899     1.08300
C507        C  0.31623413  0.42078430  0.92586691     1.08200
O508        O  0.38428456  0.50979241  0.48940005    -0.81400
O509        O  0.55238300  0.49122634  0.48489763    -0.81500
O510        O  0.53547052  0.60386390  0.48031385    -0.81400
O511        O  0.40165059  0.38756126  0.48546307    -0.81400
O512        O  0.47244017  0.41722865  0.50200314    -0.81500
O513        O  0.46594156  0.56138489  0.50174956    -0.81400
O514        O  0.39236090  0.45745977  0.51188943    -0.81400
O515        O  0.52586113  0.52994526  0.51164796    -0.81500
Co516      Co  0.40763516  0.49296322  0.95948354     1.51500
Co517      Co  0.46985814  0.41906441  0.95494863     1.51700
Co518      Co  0.48550423  0.51664771  0.96113194     1.51600
Co519      Co  0.37427718  0.41677788  0.95867677     1.51500
O520        O  0.43903229  0.45552530  0.95576677    -1.43400
C521        C  0.37484370  0.48222669  0.51449373     1.08200
C522        C  0.55493041  0.51834669  0.50996423     1.08300
C523        C  0.50470843  0.59729793  0.50407454     1.08200
C524        C  0.43174608  0.38837871  0.50615655     1.08200
O525        O  0.04299420  0.55501334  0.47771351    -0.81400
O526        O  0.89179242  0.40521255  0.52853633    -0.81400
O527        O  0.90769304  0.53655361  0.48696338    -0.81400
O528        O  0.98617096  0.42603087  0.50577987    -0.81400
O529        O  0.89278478  0.48511775  0.52871329    -0.81500
O530        O  0.04230569  0.47937851  0.47824563    -0.81400
O531        O  0.90521044  0.36598847  0.48693618    -0.81400
O532        O  0.98702289  0.55378285  0.50515925    -0.81500
C533        C  0.02772333  0.56760368  0.50437614     1.08300
C534        C  0.89067649  0.36931284  0.51910661     1.08200
C535        C  0.89154319  0.51942267  0.51891861     1.08300
C536        C  0.02717085  0.45238015  0.50507000     1.08200
O537        O  0.98669295  0.45096247  0.91033600    -0.81400
O538        O  0.84827738  0.46790432  0.95649753    -0.81500
O539        O  0.96924291  0.58313969  0.93464859    -0.81400
O540        O  0.90248133  0.41038022  0.91868898    -0.81400
O541        O  0.84604352  0.39019736  0.95693669    -0.81500
O542        O  0.98831616  0.53704840  0.90722835    -0.81400
O543        O  0.96340560  0.38721564  0.94072765    -0.81400
O544        O  0.90417232  0.49807226  0.91717457    -0.81500
Co545      Co  0.00178899  0.50300446  0.94775878     1.51500
Co546      Co  0.87035783  0.44116839  0.99417100     1.51700
Co547      Co  0.94422818  0.52802179  0.96056368     1.51600
Co548      Co  0.94180699  0.42229185  0.96327125     1.51500
O549        O  0.93674987  0.47287142  0.97908550    -1.43400
C550        C  0.98558345  0.41318493  0.91415614     1.08200
C551        C  0.86334670  0.48216009  0.92383746     1.08300
C552        C  0.99193199  0.57614275  0.90985391     1.08200
C553        C  0.86111300  0.38851620  0.92453718     1.08200
O554        O  0.44300912  0.89107532  0.49023046    -0.81400
O555        O  0.42849392  0.03480206  0.54561841    -0.81400
O556        O  0.55008453  0.03054643  0.50031430    -0.81400
O557        O  0.36139220  0.93931609  0.52400755    -0.81400
O558        O  0.51192294  0.04266662  0.54387590    -0.81500
O559        O  0.36501211  0.88515287  0.49729278    -0.81400
O560        O  0.37542179  0.01755237  0.50479840    -0.81400
O561        O  0.49500064  0.94920222  0.51737911    -0.81500
C562        C  0.47238874  0.90787480  0.51509259     1.08300
C563        C  0.39364345  0.03501879  0.53605168     1.08200
C564        C  0.54811606  0.04550046  0.53294621     1.08300
C565        C  0.35074296  0.89918786  0.52379684     1.08200
O566        O  0.36951321  0.88051269  0.96069580    -0.81400
O567        O  0.53143267  0.06529584  0.96669437    -0.81500
O568        O  0.52729652  0.94252000  0.94418288    -0.81400
O569        O  0.42635858  0.02262910  0.92270068    -0.81400
O570        O  0.45876838  0.07364708  0.96726982    -0.81500
O571        O  0.45399396  0.90578469  0.93870666    -0.81400
O572        O  0.38586128  0.93255086  0.92030648    -0.81400
O573        O  0.51036086  0.00958355  0.92572624    -0.81500
Co574      Co  0.42694090  0.91738729  0.98830051     1.51500
Co575      Co  0.48049335  0.04312052  0.00330710     1.51700
Co576      Co  0.49417479  0.96704956  0.96747373     1.51600
Co577      Co  0.38983538  0.97617602  0.95887793     1.51500
O578        O  0.44599836  0.98126034  0.98026482    -1.43400
C579        C  0.36289689  0.89218398  0.92897851     1.08200
C580        C  0.53271500  0.05088104  0.93364715     1.08300
C581        C  0.49253176  0.91157410  0.92856000     1.08200
C582        C  0.44490756  0.06282305  0.93335443     1.08200
C583        C  0.37691192  0.27546415  0.55124471    -0.14600
C584        C  0.40227114  0.28404210  0.58415011     0.07500
C585        C  0.43535920  0.32795848  0.59265378    -0.14600
C586        C  0.44439099  0.36233782  0.56765583    -0.14600
C587        C  0.41959833  0.35346977  0.53437649     0.07500
C588        C  0.38501768  0.31005192  0.52686833    -0.14600
H589        H  0.35113703  0.24188178  0.54416190     0.11500
H590        H  0.45550915  0.33536068  0.61776029     0.11500
H591        H  0.47114517  0.39571218  0.57401932     0.11500
H592        H  0.36553876  0.30250689  0.50134811     0.11500
C593        C  0.36233690  0.08562239  0.53978136    -0.14600
C594        C  0.37924111  0.06162327  0.55827570     0.07500
C595        C  0.39029929  0.07003027  0.59658487    -0.14600
C596        C  0.38797055  0.10438063  0.61540954    -0.14600
C597        C  0.37539972  0.13148451  0.59593063     0.07500
C598        C  0.36080651  0.12064615  0.55842814    -0.14600
H599        H  0.34976183  0.06831670  0.00615402     0.11500
H600        H  0.40333430  0.05178739  0.61136235     0.11500
H601        H  0.39905694  0.11158404  0.64441239     0.11500
H602        H  0.35044484  0.14066267  0.54288957     0.11500
C603        C  0.40971457  0.22652203  0.70809990    -0.17700
C604        C  0.41253532  0.19648959  0.72997293    -0.32900
H605        H  0.41066409  0.25582202  0.72076768     0.11300
H606        H  0.41358363  0.16816485  0.71737721     0.11900
C607        C  0.35856466  0.28570981  0.89682923    -0.14600
C608        C  0.37334133  0.32706343  0.87951509     0.07500
C609        C  0.38655602  0.33236578  0.84162455    -0.14600
C610        C  0.38964658  0.29832515  0.82261709    -0.14600
C611        C  0.38045075  0.25922917  0.84172374     0.07500
C612        C  0.36256400  0.25216812  0.87823302    -0.14600
H613        H  0.34913781  0.28141559  0.92638798     0.11500
H614        H  0.39923969  0.36437986  0.82820487     0.11500
H615        H  0.40322100  0.30438114  0.79425499     0.11500
H616        H  0.35450809  0.22202377  0.89329315     0.11500
C617        C  0.43820510  0.16103204  0.89603401    -0.14600
C618        C  0.43107384  0.15062851  0.85722387     0.07500
C619        C  0.43366949  0.11380901  0.84322463    -0.14600
C620        C  0.44054885  0.08658460  0.86787109    -0.14600
C621        C  0.44558962  0.09587497  0.90689823     0.07500
C622        C  0.44567801  0.13414013  0.92059161    -0.14600
H623        H  0.43698369  0.18954132  0.90771309     0.11500
H624        H  0.42861920  0.10500239  0.81356726     0.11500
H625        H  0.44052149  0.05730271  0.85648717     0.11500
H626        H  0.44920684  0.14198338  0.95045840     0.11500
C627        C  0.65377686  0.53698214  0.87256779    -0.14600
C628        C  0.64770795  0.51591781  0.83713432     0.07500
C629        C  0.60423044  0.48935324  0.82350774    -0.14600
C630        C  0.56752900  0.48164319  0.84616124    -0.14600
C631        C  0.57370365  0.50147051  0.88231019     0.07500
C632        C  0.61731114  0.53043478  0.89461510    -0.14600
H633        H  0.68697776  0.55742220  0.88385854     0.11500
H634        H  0.59861704  0.47232243  0.79652664     0.11500
H635        H  0.53428154  0.45918852  0.83587107     0.11500
H636        H  0.62325139  0.54595083  0.92229910     0.11500
C637        C  0.76193208  0.47676846  0.88180997    -0.14600
C638        C  0.77822659  0.49842196  0.84733812     0.07500
C639        C  0.82200185  0.51123185  0.83632589    -0.14600
C640        C  0.84965112  0.50439743  0.86048395    -0.14600
C641        C  0.83362409  0.48425902  0.89566114     0.07500
C642        C  0.78919164  0.46950040  0.90558511    -0.14600
H643        H  0.72809581  0.46582642  0.89072342     0.11500
H644        H  0.83526162  0.52781843  0.80974724     0.11500
H645        H  0.88382781  0.51608544  0.85218479     0.11500
H646        H  0.77574893  0.45360262  0.93238269     0.11500
C647        C  0.67255945  0.55855214  0.53797808    -0.14600
C648        C  0.67013495  0.56086716  0.57737738     0.07500
C649        C  0.63106852  0.55648926  0.59411531    -0.14600
C650        C  0.59375666  0.54587204  0.57202092    -0.14600
C651        C  0.59518124  0.53912465  0.53316202     0.07500
C652        C  0.63533121  0.54741281  0.51618520    -0.14600
H653        H  0.70214131  0.56229751  0.52408404     0.11500
H654        H  0.62837693  0.55863591  0.62446957     0.11500
H655        H  0.56313897  0.53984035  0.58548907     0.11500
H656        H  0.60760067  0.50049940  0.98847202     0.11500
C657        C  0.71748853  0.54092836  0.70029676    -0.17700
C658        C  0.74099110  0.53096370  0.72385463    -0.32900
H659        H  0.68898552  0.54277907  0.71099261     0.11300
H660        H  0.76947236  0.52900641  0.71324756     0.11900
C661        C  0.82785088  0.53112584  0.60203382    -0.14600
C662        C  0.80692043  0.55244392  0.58533395     0.07500
C663        C  0.81864196  0.56764066  0.54799810    -0.14600
C664        C  0.84860919  0.55969410  0.52718980    -0.14600
C665        C  0.86720391  0.53576917  0.54306045     0.07500
C666        C  0.85736592  0.52260881  0.58100767    -0.14600
H667        H  0.81975927  0.51905643  0.63061350     0.11500
H668        H  0.80344808  0.58453919  0.53425972     0.11500
H669        H  0.85523327  0.57004433  0.49807427     0.11500
H670        H  0.87128200  0.50413763  0.59410661     0.11500
C671        C  0.62364317  0.10990286  0.61521161    -0.14600
C672        C  0.66603276  0.12563809  0.59919097     0.07500
C673        C  0.66913368  0.11097105  0.56262900    -0.14600
C674        C  0.63082952  0.08287604  0.54187998    -0.14600
C675        C  0.58842310  0.06929104  0.55699781     0.07500
C676        C  0.58529450  0.08231330  0.59423678    -0.14600
H677        H  0.62006456  0.12066788  0.64320750     0.11500
H678        H  0.70134329  0.12226321  0.54957522     0.11500
H679        H  0.63448135  0.07347790  0.51337231     0.11500
H680        H  0.55310834  0.07233882  0.60680649     0.11500
C681        C  0.83957875  0.30240616  0.60665887    -0.14600
C682        C  0.81333786  0.25933529  0.59137780     0.07500
C683        C  0.81789112  0.25188557  0.55290454    -0.14600
C684        C  0.84596332  0.28737038  0.52965628    -0.14600
C685        C  0.86918761  0.33090697  0.54448346     0.07500
C686        C  0.86686691  0.33788858  0.58332631    -0.14600
H687        H  0.83699820  0.30931802  0.63615956     0.11500
H688        H  0.79831599  0.21894820  0.54042663     0.11500
H689        H  0.84718556  0.28124178  0.49975510     0.11500
H690        H  0.88476483  0.37121596  0.59542410     0.11500
C691        C  0.61655912  0.15939229  0.88956869    -0.14600
C692        C  0.63011961  0.14473852  0.85767308     0.07500
C693        C  0.60858822  0.09892839  0.84898026    -0.14600
C694        C  0.57552117  0.06816567  0.87287367    -0.14600
C695        C  0.56339714  0.08281847  0.90568183     0.07500
C696        C  0.58340259  0.12878609  0.91321749    -0.14600
H697        H  0.63210663  0.19455456  0.89661548     0.11500
H698        H  0.61846054  0.08675574  0.82454229     0.11500
H699        H  0.56065062  0.03292209  0.86640361     0.11500
H700        H  0.57427378  0.14112823  0.93800540     0.11500
C701        C  0.71041774  0.18463902  0.73786270    -0.17700
C702        C  0.74408557  0.21039024  0.71480794    -0.32900
H703        H  0.68218042  0.15449137  0.72681792     0.11300
H704        H  0.77256451  0.24032539  0.72585725     0.11900
C705        C  0.75351801  0.30568023  0.87803923    -0.15500
C706        C  0.76783385  0.28786351  0.84886968     0.07500
C707        C  0.81365336  0.30770858  0.84131697    -0.14600
C708        C  0.84456009  0.34252335  0.86456155    -0.14600
C709        C  0.82994633  0.35796873  0.89545828     0.07500
C710        C  0.78409252  0.34033181  0.90090172    -0.14600
H711        H  0.71840613  0.29160675  0.88415698     0.11500
H712        H  0.82558340  0.29461959  0.81901824     0.11500
H713        H  0.87976536  0.35561774  0.85962820     0.11500
H714        H  0.77171852  0.35202163  0.92395964     0.11500
C715        C  0.25775346  0.42719344  0.83766885    -0.14600
C716        C  0.21350045  0.39434147  0.84447445     0.07500
C717        C  0.20385654  0.36801121  0.87697551    -0.14600
C718        C  0.23726447  0.37547258  0.90287401    -0.14600
C719        C  0.28097643  0.41029912  0.89737854     0.07500
C720        C  0.29103873  0.43528636  0.86397984    -0.14600
H721        H  0.26617217  0.44823746  0.81315189     0.11500
H722        H  0.16998252  0.34236395  0.88295098     0.11500
H723        H  0.22854122  0.35515475  0.92787983     0.11500
H724        H  0.32465723  0.46179053  0.85845625     0.11500
C725        C  0.05512820  0.36570345  0.87705439    -0.14600
C726        C  0.07032368  0.38843255  0.84289206     0.07500
C727        C  0.05326323  0.41519089  0.83023822    -0.14600
C728        C  0.02361651  0.42148250  0.85259956    -0.14600
C729        C  0.00984865  0.40029828  0.88752127     0.07500
C730        C  0.02459181  0.37116970  0.89904617    -0.14600
H731        H  0.06781239  0.34481598  0.88719370     0.11500
H732        H  0.06476581  0.43331363  0.80404518     0.11500
H733        H  0.01276682  0.44417035  0.84323454     0.11500
H734        H  0.01465998  0.35477987  0.92610542     0.11500
C735        C  0.17787511  0.41123025  0.70017968    -0.17700
C736        C  0.14680426  0.40896502  0.72394081    -0.32900
H737        H  0.20419893  0.40611161  0.71089739     0.11300
H738        H  0.12065438  0.41431822  0.71315738     0.11900
C739        C  0.28817186  0.43688358  0.59159891    -0.14600
C740        C  0.26684747  0.46183875  0.58608274     0.07500
C741        C  0.28470434  0.49694214  0.56045686    -0.14600
C742        C  0.32212476  0.50555319  0.53934396    -0.14600
C743        C  0.34183701  0.47848708  0.54288740     0.07500
C744        C  0.32521188  0.44489136  0.56981821    -0.14600
H745        H  0.27484802  0.40971297  0.61140939     0.11500
H746        H  0.26921062  0.51709783  0.55623547     0.11500
H747        H  0.33419627  0.53207485  0.51885768     0.11500
H748        H  0.33959905  0.42363813  0.57287238     0.11500
C749        C  0.13431430  0.47917730  0.55461721    -0.14600
C750        C  0.11995827  0.44862727  0.58446822     0.07500
C751        C  0.07386709  0.42090221  0.58991337    -0.14600
C752        C  0.04323265  0.42230815  0.56471169    -0.14600
C753        C  0.05812311  0.45170405  0.53386430     0.07500
C754        C  0.10406327  0.48078380  0.52988809    -0.14600
H755        H  0.16945737  0.50147205  0.54968636     0.11500
H756        H  0.06164734  0.39693689  0.61250953     0.11500
H757        H  0.00800205  0.39972765  0.56885537     0.11500
H758        H  0.10677371  0.50517351  0.01052731     0.11500
C759        C  0.13240056  0.65226088  0.55358306    -0.14600
C760        C  0.11537952  0.66387007  0.58511497     0.07500
C761        C  0.06927481  0.64169333  0.59128874    -0.14600
C762        C  0.04055233  0.60981677  0.56526099    -0.14600
C763        C  0.05762311  0.59924252  0.53309216     0.07500
C764        C  0.10383868  0.62001827  0.52796239    -0.14600
H765        H  0.16791390  0.66856450  0.54845163     0.11500
H766        H  0.05542600  0.65016008  0.61539204     0.11500
H767        H  0.00499723  0.59393609  0.57000884     0.11500
H768        H  0.11793468  0.61223597  0.50362604     0.11500
C769        C  0.27785075  0.79236004  0.57577871    -0.14600
C770        C  0.25317218  0.80456902  0.59969378     0.07500
C771        C  0.26396651  0.84937523  0.60172442    -0.14600
C772        C  0.29720096  0.88095807  0.57817981    -0.14600
C773        C  0.32016119  0.86807226  0.55257382     0.07500
C774        C  0.31119531  0.82377940  0.55268389    -0.14600
H775        H  0.27004760  0.75792304  0.57386092     0.11500
H776        H  0.24490878  0.85932360  0.61966246     0.11500
H777        H  0.30348560  0.91491825  0.57877440     0.11500
H778        H  0.26868263  0.88464249  0.01406401     0.11500
C779        C  0.07330559  0.63961599  0.83117170    -0.14600
C780        C  0.09662453  0.68251519  0.84735981     0.07500
C781        C  0.08209523  0.69077588  0.88206522    -0.14600
C782        C  0.04573954  0.65656749  0.90080270    -0.14600
C783        C  0.02395004  0.61303080  0.88582494     0.07500
C784        C  0.03771167  0.60488785  0.85059646    -0.14600
H785        H  0.08407305  0.63244533  0.80446659     0.11500
H786        H  0.09943988  0.72357448  0.89504616     0.11500
H787        H  0.03634225  0.66366143  0.92820319     0.11500
H788        H  0.02174067  0.57155645  0.83862876     0.11500
C789        C  0.18442703  0.76296586  0.73482253    -0.17700
C790        C  0.15409579  0.73528306  0.70989934    -0.32900
H791        H  0.21615059  0.78971394  0.72478330     0.11300
H792        H  0.12273398  0.70790097  0.71986640     0.11900
C793        C  0.28470741  0.84648455  0.84591342    -0.14600
C794        C  0.25091096  0.80558585  0.85981613     0.07500
C795        C  0.25566828  0.79205692  0.89586031    -0.14600
C796        C  0.29314877  0.81927698  0.91779931    -0.14600
C797        C  0.32624777  0.86077093  0.90423541     0.07500
C798        C  0.32179903  0.87383957  0.86795142    -0.14600
H799        H  0.28208895  0.85784646  0.81825435     0.11500
H800        H  0.23039712  0.76044732  0.90713510     0.11500
H801        H  0.29556794  0.80847337  0.94576079     0.11500
H802        H  0.34668234  0.90570847  0.85678390     0.11500
C803        C  0.45344232  0.65781198  0.87618296    -0.14600
C804        C  0.48450589  0.67212585  0.84694242     0.07500
C805        C  0.50368069  0.64619038  0.83570457    -0.14600
C806        C  0.49313087  0.60709290  0.85472608    -0.14600
C807        C  0.46255360  0.59327284  0.88433197     0.07500
C808        C  0.44219593  0.61856814  0.89445485    -0.14600
H809        H  0.43769070  0.67686076  0.88486403     0.11500
H810        H  0.52758212  0.65674396  0.81288215     0.11500
H811        H  0.50910694  0.58809812  0.84666554     0.11500
H812        H  0.41849880  0.60892058  0.91744256     0.11500
C813        C  0.45925065  0.81023289  0.86521394    -0.14600
C814        C  0.49940093  0.82027804  0.84729240     0.07500
C815        C  0.53724514  0.86188428  0.85460048    -0.14600
C816        C  0.53520912  0.89219186  0.88042827    -0.14600
C817        C  0.49505839  0.88175099  0.89889175     0.07500
C818        C  0.45692162  0.84077293  0.89019132    -0.14600
H819        H  0.42979153  0.77809855  0.86057611     0.11500
H820        H  0.56881479  0.86999384  0.84179302     0.11500
H821        H  0.56519169  0.92339558  0.88647734     0.11500
H822        H  0.42549496  0.83142140  0.90392695     0.11500
C823        C  0.54711703  0.67417482  0.53181323    -0.14600
C824        C  0.51321673  0.62974872  0.53530584     0.07500
C825        C  0.48551993  0.61760347  0.56756468    -0.14600
C826        C  0.48978236  0.65001680  0.59423722    -0.14600
C827        C  0.52145021  0.69503445  0.58883121     0.07500
C828        C  0.55071241  0.70650719  0.55791081    -0.14600
H829        H  0.56909026  0.68454329  0.50751229     0.11500
H830        H  0.45939708  0.58343067  0.57133348     0.11500
H831        H  0.46633129  0.64041656  0.61746324     0.11500
H832        H  0.57502631  0.74106924  0.55288458     0.11500
C833        C  0.47152074  0.80600371  0.55159272    -0.14600
C834        C  0.50070356  0.82359563  0.58218403     0.07500
C835        C  0.51995567  0.86901455  0.59147016    -0.14600
C836        C  0.51071176  0.89675429  0.56977262    -0.14600
C837        C  0.48132150  0.87906951  0.53916031     0.07500
C838        C  0.46154684  0.83340471  0.53046339    -0.14600
H839        H  0.45589376  0.77086532  0.54436464     0.11500
H840        H  0.54256460  0.88305074  0.61507680     0.11500
H841        H  0.52648764  0.93191934  0.57690774     0.11500
H842        H  0.42633965  0.79443502  0.01538661     0.11500
C843        C  0.52561145  0.75279162  0.73055296    -0.17700
C844        C  0.51847589  0.77716907  0.70582259    -0.32900
H845        H  0.53262157  0.72725794  0.72026329     0.11300
H846        H  0.51043878  0.80196090  0.71617126     0.11900
loop_ 
_geom_bond_atom_site_label_1 
_geom_bond_atom_site_label_2 
_geom_bond_distance 
_geom_bond_site_symmetry_2 
_ccdc_geom_bond_type 
C1            N2   1.351       .  A
C1            N6   1.356       .  A
C1          C404   1.465       .  S
N2            C3   1.352       .  A
C3            N4   1.358       .  A
C3          C411   1.470       .  S
N4            C5   1.364       .  A
C5            N6   1.360       .  A
C5          C421   1.474       .  S
C7            N8   1.355       .  A
C7           N12   1.360       .  A
C7          C381   1.468       .  S
N8            C9   1.358       .  A
C9           N10   1.358       .  A
C9          C420   1.473       .  S
N10          C11   1.358       .  A
C11          N12   1.358       .  A
C11         C391   1.477       .  S
C13          N14   1.354       .  A
C13          N18   1.360       .  A
C13         C371   1.480       .  S
N14          C15   1.353       .  A
C15          N16   1.364       .  A
C15         C366   1.475       .  S
N16          C17   1.364       .  A
C17          N18   1.363       .  A
C17         C357   1.485       .  S
C19          N20   1.357       .  A
C19          N24   1.361       .  A
C19         C347   1.477       .  S
N20          C21   1.355       .  A
C21          N22   1.355       .  A
C21         C337   1.473       .  S
N22          C23   1.355       .  A
C23          N24   1.365       .  A
C23         C367   1.476       .  S
C25          N26   1.356       .  A
C25          N30   1.356       .  A
C25         C327   1.476       .  S
N26          C27   1.359       .  A
C27          N28   1.364       .  A
C27         C312   1.476       .  S
N28          C29   1.360       .  A
C29          N30   1.356       .  A
C29         C317   1.476       .  S
C31          N32   1.359       .  A
C31          N36   1.360       .  A
C31         C303   1.475       .  S
N32          C33   1.357       .  A
C33          N34   1.357       .  A
C33         C293   1.474       .  S
N34          C35   1.355       .  A
C35          N36   1.361       .  A
C35         C313   1.476       .  S
C37          N38   1.359       .  A
C37          N42   1.367       .  A
C37         C283   1.493       .  S
N38          C39   1.356       .  A
C39          N40   1.354       .  A
C39         C269   1.479       .  S
N40          C41   1.356       .  A
C41          N42   1.371       .  A
C41         C278   1.483       .  S
C43          N44   1.351       .  A
C43          N48   1.360       .  A
C43         C259   1.481       .  S
N44          C45   1.350       .  A
C45          N46   1.368       .  A
C45         C279   1.481       .  S
N46          C47   1.370       .  A
C47          N48   1.364       .  A
C47         C249   1.496       .  S
C49          N50   1.359       .  A
C49          N54   1.362       .  A
C49         C225   1.489       .  S
N50          C51   1.356       .  A
C51          N52   1.356       .  A
C51         C239   1.481       .  S
N52          C53   1.358       .  A
C53          N54   1.363       .  A
C53         C234   1.477       .  S
C55          N56   1.354       .  A
C55          N60   1.355       .  A
C55         C205   1.471       .  S
N56          C57   1.359       .  A
C57          N58   1.365       .  A
C57         C235   1.479       .  S
N58          C59   1.364       .  A
C59          N60   1.359       .  A
C59         C215   1.486       .  S
C61          N62   1.358       .  A
C61          N66   1.361       .  A
C61         C195   1.488       .  S
N62          C63   1.358       .  A
C63          N64   1.360       .  A
C63         C188   1.489       .  S
N64          C65   1.365       .  A
C65          N66   1.363       .  A
C65         C181   1.483       .  S
C67          N68   1.360       .  A
C67          N72   1.363       .  A
C67         C174   1.485       .  S
N68          C69   1.357       .  A
C69          N70   1.357       .  A
C69         C161   1.474       .  S
N70          C71   1.357       .  A
C71          N72   1.362       .  A
C71         C180   1.480       .  S
O73          C81   1.230       .  A
O73         Co93   1.885       .  S
O74          C82   1.260       .  A
O74         Co94   1.974       .  S
O75          C83   1.284       .  A
O75         Co95   2.029       .  S
O76          C84   1.274       .  A
O76         Co96   1.893       .  S
O77          C83   1.275       .  A
O77         Co94   1.979       .  S
O78          C84   1.300       .  A
O78         Co93   2.074       .  S
O79          C82   1.269       .  A
O79         Co96   2.016       .  S
O80          C81   1.266       .  A
O80         Co95   2.042       .  S
C81         C384   1.466       .  S
C82         C185   1.477       .  S
C83         C208   1.475       .  S
C84         C296   1.466       .  S
O85          C98   1.233   1_556  A
O85        Co516   1.915       .  S
O86          C99   1.256   1_556  A
O86        Co517   1.975       .  S
O87         C100   1.280   1_556  A
O87        Co518   1.884       .  S
O88         C101   1.274   1_556  A
O88        Co519   1.998       .  S
O89         C101   1.269       .  A
O89        Co517   1.974   1_554  S
O90         C100   1.300       .  A
O90        Co516   2.075   1_554  S
O91          C98   1.275       .  A
O91        Co519   2.066   1_554  S
O92          C99   1.260       .  A
O92        Co518   2.009   1_554  S
Co93        O508   1.897       .  S
Co93        O513   2.087       .  S
Co93         O97   2.066       .  S
Co94        O509   1.965       .  S
Co94        O512   1.980       .  S
Co94         O97   2.025       .  S
Co95        O510   1.904       .  S
Co95        O515   1.998       .  S
Co95         O97   1.940       .  S
Co96        O511   1.988       .  S
Co96        O514   2.061       .  S
Co96         O97   1.963       .  S
C98         C320   1.484       .  S
C99         C228   1.477       .  S
C100        C401   1.466       .  S
C101        C164   1.466       .  S
O102        C110   1.253   1_556  A
O102       Co545   1.993       .  S
O103        C111   1.266       .  A
O103       Co546   1.984   1_554  S
O104        C112   1.271   1_556  A
O104       Co547   2.012       .  S
O105        C113   1.248   1_655  A
O105       Co548   1.971   1_554  S
O106        C112   1.267       .  A
O106       Co546   1.981   1_554  S
O107        C113   1.255   1_556  A
O107       Co545   1.991       .  S
O108        C111   1.265   1_556  A
O108       Co548   1.997       .  S
O109        C110   1.244   1_655  A
O109       Co547   1.961   1_554  S
C110        C340   1.468       .  S
C111        C262   1.470       .  S
C112        C242   1.473       .  S
C113        C330   1.479       .  S
O114        C127   1.301       .  A
O114       Co122   2.079   1_655  S
O115        C128   1.271       .  A
O115       Co123   2.019       .  S
O116        C129   1.274   1_655  A
O116       Co124   1.899       .  S
O117        C130   1.265       .  A
O117       Co125   2.009       .  S
O118        C130   1.268       .  A
O118       Co123   2.004       .  S
O119        C129   1.303   1_655  A
O119       Co122   2.085   1_655  S
O120        C127   1.272       .  A
O120       Co125   1.890       .  S
O121        C128   1.261       .  A
O121       Co124   1.986       .  S
Co122       O525   1.990       .  S
Co122       O530   2.001       .  S
Co122       O126   2.250   1_455  S
Co123       O526   1.977       .  S
Co123       O529   1.980       .  S
Co123       O126   2.063       .  S
Co124       O527   2.028       .  S
Co124       O532   1.961       .  S
Co124       O126   1.921       .  S
Co125       O528   1.995       .  S
Co125       O531   2.005       .  S
Co125       O126   1.928       .  S
C127        C306   1.479   1_655  S
C128        C218   1.486       .  S
C129        C360   1.490       .  S
C130        C286   1.492       .  S
O131        C139   1.263       .  A
O131       Co574   1.872   1_554  S
O132        C140   1.263       .  A
O132       Co575   1.970       .  S
O133        C141   1.273   1_556  A
O133       Co576   2.027   1_545  S
O134        C142   1.281   1_556  A
O134       Co577   2.026       .  S
O135        C141   1.264       .  A
O135       Co575   1.984       .  S
O136        C142   1.271       .  A
O136       Co574   1.972   1_554  S
O137        C140   1.274   1_556  A
O137       Co577   2.025   1_545  S
O138        C139   1.297       .  A
O138       Co576   2.116   1_554  S
C139        C414   1.473       .  S
C140        C171   1.485       .  S
C141        C252   1.493       .  S
C142        C350   1.483       .  S
O143        C156   1.296       .  A
O143       Co151   2.069       .  S
O144        C157   1.266       .  A
O144       Co152   2.006       .  S
O145        C158   1.275       .  A
O145       Co153   1.907       .  S
O146        C159   1.263       .  A
O146       Co154   1.996   1_545  S
O147        C159   1.270       .  A
O147       Co152   2.013       .  S
O148        C158   1.297       .  A
O148       Co151   2.063       .  S
O149        C156   1.270       .  A
O149       Co154   1.903       .  S
O150        C157   1.259       .  A
O150       Co153   1.985   1_545  S
Co151       O554   1.982       .  S
Co151       O559   2.000       .  S
Co151       O155   2.244       .  S
Co152       O555   1.974       .  S
Co152       O558   1.984       .  S
Co152       O155   2.066   1_545  S
Co153       O556   2.022   1_565  S
Co153       O561   1.961       .  S
Co153       O155   1.922       .  S
Co154       O557   1.969       .  S
Co154       O560   2.000   1_565  S
Co154       O155   1.935       .  S
C156        C374   1.476       .  S
C157        C272   1.478       .  S
C158        C394   1.477       .  S
C159        C198   1.486       .  S
C160        C161   1.405       .  A
C160        C165   1.398       .  A
C160        H166   1.083       .  S
C161        C162   1.404       .  A
C162        C163   1.395       .  A
C162        H167   1.083       .  S
C163        C164   1.404       .  A
C163        H168   1.084       .  S
C164        C165   1.402       .  A
C165        H169   1.083   1_554  S
C170        C171   1.406       .  A
C170        C175   1.399       .  A
C170        H599   1.081       .  S
C171        C172   1.406       .  A
C172        C173   1.401       .  A
C172        H177   1.085       .  S
C173        C174   1.406       .  A
C173        H178   1.081       .  S
C174        C175   1.406       .  A
C175        H179   1.085       .  S
H176        C593   1.082       .  S
C180        C181   1.346       .  D
C180        H182   1.083       .  S
C181        H183   1.083       .  S
C184        C185   1.404       .  A
C184        C189   1.395       .  A
C184        H190   1.082       .  S
C185        C186   1.404       .  A
C186        C187   1.410       .  A
C186        H191   1.083       .  S
C187        C188   1.411       .  A
C187        H192   1.082       .  S
C188        C189   1.405       .  A
C189        H193   1.084       .  S
C194        C195   1.405       .  A
C194        C199   1.394       .  A
C194        H200   1.083       .  S
C195        C196   1.408       .  A
C196        C197   1.407       .  A
C196        H201   1.082       .  S
C197        C198   1.408       .  A
C197        H202   1.084       .  S
C198        C199   1.405       .  A
C199        H203   1.083       .  S
C204        C205   1.404       .  A
C204        C209   1.399       .  A
C204        H210   1.083       .  S
C205        C206   1.402       .  A
C206        C207   1.397       .  A
C206        H211   1.084       .  S
C207        C208   1.405       .  A
C207        H212   1.083       .  S
C208        C209   1.404       .  A
C209        H213   1.082       .  S
C214        C215   1.406       .  A
C214        C219   1.395       .  A
C214        H220   1.084       .  S
C215        C216   1.407       .  A
C216        C217   1.407       .  A
C216        H221   1.081       .  S
C217        C218   1.409       .  A
C217        H222   1.084       .  S
C218        C219   1.405       .  A
C219        H223   1.082       .  S
C224        C225   1.405       .  A
C224        C229   1.390       .  A
C224        H230   1.084       .  S
C225        C226   1.412       .  A
C226        C227   1.409       .  A
C226        H231   1.081       .  S
C227        C228   1.403       .  A
C227        H232   1.084       .  S
C228        C229   1.404       .  A
C229        H656   1.083   1_554  S
H233        C652   1.083       .  S
C234        C235   1.351       .  D
C234        H236   1.086       .  S
C235        H237   1.086       .  S
C238        C239   1.407       .  A
C238        C243   1.398       .  A
C238        H244   1.081       .  S
C239        C240   1.406       .  A
C240        C241   1.398       .  A
C240        H245   1.085       .  S
C241        C242   1.404       .  A
C241        H246   1.082   1_554  S
C242        C243   1.402       .  A
C243        H247   1.085       .  S
C248        C249   1.407       .  A
C248        C253   1.406       .  A
C248        H254   1.082       .  S
C249        C250   1.409       .  A
C250        C251   1.403       .  A
C250        H255   1.084       .  S
C251        C252   1.406       .  A
C251        H256   1.082       .  S
C252        C253   1.409       .  A
C253        H257   1.084       .  S
C258        C259   1.410       .  A
C258        C263   1.394       .  A
C258        H264   1.081       .  S
C259        C260   1.404       .  A
C260        C261   1.399       .  A
C260        H265   1.084       .  S
C261        C262   1.406       .  A
C261        H266   1.082   1_554  S
C262        C263   1.398       .  A
C263        H267   1.085       .  S
C268        C269   1.404       .  A
C268        C273   1.395       .  A
C268        H274   1.083       .  S
C269        C270   1.407       .  A
C270        C271   1.399       .  A
C270        H275   1.083       .  S
C271        C272   1.405       .  A
C271        H276   1.083       .  S
C272        C273   1.406       .  A
C273        H277   1.083       .  S
C278        C279   1.336       .  D
C278        H280   1.086       .  S
C279        H281   1.086       .  S
C282        C283   1.405       .  A
C282        C287   1.394       .  A
C282        H288   1.084       .  S
C283        C284   1.410       .  A
C284        C285   1.414       .  A
C284        H289   1.082       .  S
C285        C286   1.410       .  A
C285        H290   1.083       .  S
C286        C287   1.405       .  A
C287        H291   1.083       .  S
C292        C293   1.404       .  A
C292        C297   1.392       .  A
C292        H298   1.083       .  S
C293        C294   1.406       .  A
C294        C295   1.399       .  A
C294        H299   1.083       .  S
C295        C296   1.402       .  A
C295        H300   1.083       .  S
C296        C297   1.402       .  A
C297        H301   1.084       .  S
C302        C303   1.402       .  A
C302        C307   1.396       .  A
C302        H308   1.083       .  S
C303        C304   1.405       .  A
C304        C305   1.401       .  A
C304        H309   1.083       .  S
C305        C306   1.405       .  A
C305        H310   1.083       .  S
C306        C307   1.406       .  A
C307        H311   1.083       .  S
C312        C313   1.342       .  D
C312        H314   1.085       .  S
C313        H315   1.085       .  S
C316        C317   1.404       .  A
C316        C321   1.403       .  A
C316        H322   1.083       .  S
C317        C318   1.402       .  A
C318        C319   1.397       .  A
C318        H323   1.083       .  S
C319        C320   1.415       .  A
C319        H324   1.085       .  S
C320        C321   1.399       .  A
C321        H325   1.081       .  S
C326        C327   1.402       .  A
C326        C331   1.392       .  A
C326        H332   1.084       .  S
C327        C328   1.406       .  A
C328        C329   1.403       .  A
C328        H333   1.082       .  S
C329        C330   1.407       .  A
C329        H334   1.084   1_455  S
C330        C331   1.405       .  A
C331        H758   1.082       .  S
H335        C754   1.082       .  S
C336        C337   1.404       .  A
C336        C341   1.394       .  A
C336        H342   1.084       .  S
C337        C338   1.405       .  A
C338        C339   1.396       .  A
C338        H343   1.082       .  S
C339        C340   1.402       .  A
C339        H344   1.084       .  S
C340        C341   1.403       .  A
C341        H345   1.083   1_554  S
C346        C347   1.402       .  A
C346        C351   1.394       .  A
C346        H352   1.084       .  S
C347        C348   1.404       .  A
C348        C349   1.404       .  A
C348        H353   1.082       .  S
C349        C350   1.408       .  A
C349        H354   1.083       .  S
C350        C351   1.406       .  A
C351        H778   1.082       .  S
H355        C774   1.083       .  S
C356        C357   1.407       .  A
C356        C361   1.407       .  A
C356        H362   1.082       .  S
C357        C358   1.403       .  A
C358        C359   1.399       .  A
C358        H363   1.084       .  S
C359        C360   1.408       .  A
C359        H364   1.082       .  S
C360        C361   1.408       .  A
C361        H365   1.084       .  S
C366        C367   1.338       .  D
C366        H368   1.087       .  S
C367        H369   1.086       .  S
C370        C371   1.407       .  A
C370        C375   1.395       .  A
C370        H376   1.082       .  S
C371        C372   1.405       .  A
C372        C373   1.402       .  A
C372        H377   1.084       .  S
C373        C374   1.407       .  A
C373        H378   1.083       .  S
C374        C375   1.402       .  A
C375        H379   1.084       .  S
C380        C381   1.396       .  A
C380        C385   1.384       .  A
C380        H386   1.084       .  S
C381        C382   1.409       .  A
C382        C383   1.403       .  A
C382        H387   1.082       .  S
C383        C384   1.397       .  A
C383        H388   1.083       .  S
C384        C385   1.411       .  A
C385        H389   1.084       .  S
C390        C391   1.404       .  A
C390        C395   1.400       .  A
C390        H396   1.085       .  S
C391        C392   1.404       .  A
C392        C393   1.399       .  A
C392        H397   1.082       .  S
C393        C394   1.405       .  A
C393        H398   1.085       .  S
C394        C395   1.405       .  A
C395        H399   1.082       .  S
C400        C401   1.398       .  A
C400        C405   1.391       .  A
C400        H406   1.085   1_554  S
C401        C402   1.408       .  A
C402        C403   1.399       .  A
C402        H407   1.082       .  S
C403        C404   1.402       .  A
C403        H408   1.085       .  S
C404        C405   1.402       .  A
C405        H409   1.082       .  S
C410        C411   1.401       .  A
C410        C415   1.387       .  A
C410        H416   1.083       .  S
C411        C412   1.405       .  A
C412        C413   1.406       .  A
C412        H417   1.083       .  S
C413        C414   1.407       .  A
C413        H418   1.083       .  S
C414        C415   1.402       .  A
C415        H842   1.084       .  S
H419        C838   1.082       .  S
C420        C421   1.344       .  D
C420        H422   1.083       .  S
C421        H423   1.083       .  S
C424        N425   1.355       .  A
C424        N429   1.369       .  A
C424        C827   1.481       .  S
N425        C426   1.352       .  A
C426        N427   1.349       .  A
C426        C834   1.462       .  S
N427        C428   1.352       .  A
C428        N429   1.373       .  A
C428        C844   1.479       .  S
C430        N431   1.346       .  A
C430        N435   1.357       .  A
C430        C804   1.459       .  S
N431        C432   1.347       .  A
C432        N433   1.372       .  A
C432        C843   1.476       .  S
N433        C434   1.369       .  A
C434        N435   1.357       .  A
C434        C814   1.486       .  S
C436        N437   1.355       .  A
C436        N441   1.359       .  A
C436        C794   1.480       .  S
N437        C438   1.354       .  A
C438        N439   1.362       .  A
C438        C789   1.474       .  S
N439        C440   1.362       .  A
C440        N441   1.361       .  A
C440        C780   1.479       .  S
C442        N443   1.353       .  A
C442        N447   1.360       .  A
C442        C770   1.473       .  S
N443        C444   1.353       .  A
C444        N445   1.356       .  A
C444        C760   1.470       .  S
N445        C446   1.358       .  A
C446        N447   1.366       .  A
C446        C790   1.476       .  S
C448        N449   1.371       .  A
C448        N453   1.358       .  A
C448        C750   1.497       .  S
N449        C450   1.375       .  A
C450        N451   1.353       .  A
C450        C735   1.482       .  S
N451        C452   1.349       .  A
C452        N453   1.354       .  A
C452        C740   1.467       .  S
C454        N455   1.354       .  A
C454        N459   1.349       .  A
C454        C726   1.465       .  S
N455        C456   1.358       .  A
C456        N457   1.371       .  A
C456        C716   1.488       .  S
N457        C458   1.372       .  A
C458        N459   1.349       .  A
C458        C736   1.481       .  S
C460        N461   1.358       .  A
C460        N465   1.364       .  A
C460        C706   1.483       .  S
N461        C462   1.355       .  A
C462        N463   1.353       .  A
C462        C692   1.474       .  S
N463        C464   1.355       .  A
C464        N465   1.367       .  A
C464        C701   1.476       .  S
C466        N467   1.355       .  A
C466        N471   1.359       .  A
C466        C682   1.478       .  S
N467        C468   1.353       .  A
C468        N469   1.364       .  A
C468        C702   1.477       .  S
N469        C470   1.363       .  A
C470        N471   1.360       .  A
C470        C672   1.487       .  S
C472        N473   1.359       .  A
C472        N477   1.351       .  A
C472        C648   1.477       .  S
N473        C474   1.359       .  A
C474        N475   1.366       .  A
C474        C662   1.492       .  S
N475        C476   1.367       .  A
C476        N477   1.351       .  A
C476        C657   1.475       .  S
C478        N479   1.365       .  A
C478        N483   1.355       .  A
C478        C628   1.485       .  S
N479        C480   1.370       .  A
C480        N481   1.355       .  A
C480        C658   1.477       .  S
N481        C482   1.353       .  A
C482        N483   1.356       .  A
C482        C638   1.471       .  S
C484        N485   1.360       .  A
C484        N489   1.364       .  A
C484        C618   1.486       .  S
N485        C486   1.358       .  A
C486        N487   1.349       .  A
C486        C611   1.471       .  S
N487        C488   1.353       .  A
C488        N489   1.362       .  A
C488        C604   1.470       .  S
C490        N491   1.359       .  A
C490        N495   1.353       .  A
C490        C597   1.474       .  S
N491        C492   1.359       .  A
C492        N493   1.359       .  A
C492        C584   1.474       .  S
N493        C494   1.357       .  A
C494        N495   1.353       .  A
C494        C603   1.467       .  S
O496        C504   1.230       .  A
O496       Co516   1.876       .  S
O497        C505   1.258       .  A
O497       Co517   1.956       .  S
O498        C506   1.284       .  A
O498       Co518   2.033       .  S
O499        C507   1.279       .  A
O499       Co519   1.913       .  S
O500        C506   1.275       .  A
O500       Co517   1.997       .  S
O501        C507   1.300       .  A
O501       Co516   2.080       .  S
O502        C505   1.264       .  A
O502       Co519   2.002       .  S
O503        C504   1.266       .  A
O503       Co518   2.032       .  S
C504        C807   1.458       .  S
C505        C608   1.458       .  S
C506        C631   1.492       .  S
C507        C719   1.489       .  S
O508        C521   1.231       .  A
O509        C522   1.254       .  A
O510        C523   1.283       .  A
O511        C524   1.270       .  A
O512        C524   1.268       .  A
O513        C523   1.302       .  A
O514        C521   1.276       .  A
O515        C522   1.259       .  A
Co516       O520   2.070       .  S
Co517       O520   2.021       .  S
Co518       O520   1.925       .  S
Co519       O520   1.963       .  S
C521        C743   1.474       .  S
C522        C651   1.465       .  S
C523        C824   1.488       .  S
C524        C587   1.468       .  S
O525        C533   1.254       .  A
O526        C534   1.264       .  A
O527        C535   1.274       .  A
O528        C536   1.250   1_655  A
O529        C535   1.263       .  A
O530        C536   1.256       .  A
O531        C534   1.268       .  A
O532        C533   1.245   1_655  A
C533        C763   1.472       .  S
C534        C685   1.471       .  S
C535        C665   1.488       .  S
C536        C753   1.497       .  S
O537        C550   1.298       .  A
O537       Co545   2.069   1_655  S
O538        C551   1.266       .  A
O538       Co546   1.997       .  S
O539        C552   1.273       .  A
O539       Co547   1.903       .  S
O540        C553   1.262       .  A
O540       Co548   1.997       .  S
O541        C553   1.269       .  A
O541       Co546   2.009       .  S
O542        C552   1.297       .  A
O542       Co545   2.069   1_655  S
O543        C550   1.267       .  A
O543       Co548   1.882       .  S
O544        C551   1.259       .  A
O544       Co547   1.982       .  S
Co545       O549   2.247   1_455  S
Co546       O549   2.066       .  S
Co547       O549   1.919       .  S
Co548       O549   1.920       .  S
C550        C729   1.465   1_655  S
C551        C641   1.470       .  S
C552        C783   1.479   1_655  S
C553        C709   1.483       .  S
O554        C562   1.251       .  A
O555        C563   1.263       .  A
O556        C564   1.275       .  A
O557        C565   1.247       .  A
O558        C564   1.267       .  A
O559        C565   1.257       .  A
O560        C563   1.267       .  A
O561        C562   1.244       .  A
C562        C837   1.468       .  S
C563        C594   1.466       .  S
C564        C675   1.488       .  S
C565        C773   1.482       .  S
O566        C579   1.260       .  A
O566       Co574   2.006       .  S
O567        C580   1.275       .  A
O567       Co575   2.007   1_556  S
O568        C581   1.272       .  A
O568       Co576   1.912       .  S
O569        C582   1.261       .  A
O569       Co577   1.957   1_545  S
O570        C582   1.278       .  A
O570       Co575   2.041   1_556  S
O571        C581   1.297       .  A
O571       Co574   2.110       .  S
O572        C579   1.257       .  A
O572       Co577   1.976       .  S
O573        C580   1.269       .  A
O573       Co576   1.973   1_545  S
Co574       O578   1.991       .  S
Co575       O578   2.024   1_544  S
Co576       O578   2.010       .  S
Co577       O578   2.021       .  S
C579        C797   1.478       .  S
C580        C695   1.475       .  S
C581        C817   1.495       .  S
C582        C621   1.480       .  S
C583        C584   1.404       .  A
C583        C588   1.395       .  A
C583        H589   1.083       .  S
C584        C585   1.405       .  A
C585        C586   1.397       .  A
C585        H590   1.083       .  S
C586        C587   1.403       .  A
C586        H591   1.084       .  S
C587        C588   1.402       .  A
C588        H592   1.082       .  S
C593        C594   1.404       .  A
C593        C598   1.396       .  A
C594        C595   1.400       .  A
C595        C596   1.392       .  A
C595        H600   1.085       .  S
C596        C597   1.407       .  A
C596        H601   1.082       .  S
C597        C598   1.404       .  A
C598        H602   1.084       .  S
C603        C604   1.348       .  D
C603        H605   1.089       .  S
C604        H606   1.088       .  S
C607        C608   1.406       .  A
C607        C612   1.392       .  A
C607        H613   1.084       .  S
C608        C609   1.399       .  A
C609        C610   1.398       .  A
C609        H614   1.083       .  S
C610        C611   1.408       .  A
C610        H615   1.083       .  S
C611        C612   1.400       .  A
C612        H616   1.083       .  S
C617        C618   1.409       .  A
C617        C622   1.399       .  A
C617        H623   1.085       .  S
C618        C619   1.405       .  A
C619        C620   1.400       .  A
C619        H624   1.081       .  S
C620        C621   1.407       .  A
C620        H625   1.085       .  S
C621        C622   1.403       .  A
C622        H626   1.081       .  S
C627        C628   1.406       .  A
C627        C632   1.401       .  A
C627        H633   1.085       .  S
C628        C629   1.405       .  A
C629        C630   1.409       .  A
C629        H634   1.082       .  S
C630        C631   1.411       .  A
C630        H635   1.084       .  S
C631        C632   1.405       .  A
C632        H636   1.082       .  S
C637        C638   1.401       .  A
C637        C642   1.388       .  A
C637        H643   1.084       .  S
C638        C639   1.406       .  A
C639        C640   1.399       .  A
C639        H644   1.082       .  S
C640        C641   1.404       .  A
C640        H645   1.084       .  S
C641        C642   1.404       .  A
C642        H646   1.082       .  S
C647        C648   1.401       .  A
C647        C652   1.388       .  A
C647        H653   1.083       .  S
C648        C649   1.412       .  A
C649        C650   1.400       .  A
C649        H654   1.083       .  S
C650        C651   1.397       .  A
C650        H655   1.083       .  S
C651        C652   1.405       .  A
C657        C658   1.335       .  D
C657        H659   1.087       .  S
C658        H660   1.087       .  S
C661        C662   1.406       .  A
C661        C666   1.404       .  A
C661        H667   1.081       .  S
C662        C663   1.410       .  A
C663        C664   1.402       .  A
C663        H668   1.085       .  S
C664        C665   1.404       .  A
C664        H669   1.081       .  S
C665        C666   1.409       .  A
C666        H670   1.085       .  S
C671        C672   1.406       .  A
C671        C676   1.402       .  A
C671        H677   1.082       .  S
C672        C673   1.407       .  A
C673        C674   1.401       .  A
C673        H678   1.084       .  S
C674        C675   1.405       .  A
C674        H679   1.082       .  S
C675        C676   1.408       .  A
C676        H680   1.084       .  S
C681        C682   1.407       .  A
C681        C686   1.394       .  A
C681        H687   1.081       .  S
C682        C683   1.405       .  A
C683        C684   1.399       .  A
C683        H688   1.085       .  S
C684        C685   1.404       .  A
C684        H689   1.082       .  S
C685        C686   1.402       .  A
C686        H690   1.085       .  S
C691        C692   1.402       .  A
C691        C696   1.393       .  A
C691        H697   1.084       .  S
C692        C693   1.406       .  A
C693        C694   1.398       .  A
C693        H698   1.082       .  S
C694        C695   1.404       .  A
C694        H699   1.084       .  S
C695        C696   1.406       .  A
C696        H700   1.083       .  S
C701        C702   1.338       .  D
C701        H703   1.086       .  S
C702        H704   1.086       .  S
C705        C706   1.404       .  A
C705        C710   1.393       .  A
C705        H711   1.084       .  S
C706        C707   1.407       .  A
C707        C708   1.407       .  A
C707        H712   1.082       .  S
C708        C709   1.408       .  A
C708        H713   1.084       .  S
C709        C710   1.404       .  A
C710        H714   1.083       .  S
C715        C716   1.403       .  A
C715        C720   1.404       .  A
C715        H721   1.082       .  S
C716        C717   1.409       .  A
C717        C718   1.403       .  A
C717        H722   1.084       .  S
C718        C719   1.404       .  A
C718        H723   1.082       .  S
C719        C720   1.411       .  A
C720        H724   1.084       .  S
C725        C726   1.401       .  A
C725        C730   1.395       .  A
C725        H731   1.083       .  S
C726        C727   1.405       .  A
C727        C728   1.391       .  A
C727        H732   1.083       .  S
C728        C729   1.400       .  A
C728        H733   1.083       .  S
C729        C730   1.405       .  A
C730        H734   1.083       .  S
C735        C736   1.333       .  D
C735        H737   1.086       .  S
C736        H738   1.086       .  S
C739        C740   1.406       .  A
C739        C744   1.398       .  A
C739        H745   1.082       .  S
C740        C741   1.398       .  A
C741        C742   1.391       .  A
C741        H746   1.085       .  S
C742        C743   1.416       .  A
C742        H747   1.084       .  S
C743        C744   1.395       .  A
C744        H748   1.082       .  S
C749        C750   1.407       .  A
C749        C754   1.396       .  A
C749        H755   1.084       .  S
C750        C751   1.409       .  A
C751        C752   1.414       .  A
C751        H756   1.082       .  S
C752        C753   1.412       .  A
C752        H757   1.084       .  S
C753        C754   1.405       .  A
C759        C760   1.403       .  A
C759        C764   1.392       .  A
C759        H765   1.084       .  S
C760        C761   1.404       .  A
C761        C762   1.398       .  A
C761        H766   1.082       .  S
C762        C763   1.405       .  A
C762        H767   1.084       .  S
C763        C764   1.404       .  A
C764        H768   1.082       .  S
C769        C770   1.402       .  A
C769        C774   1.394       .  A
C769        H775   1.084       .  S
C770        C771   1.403       .  A
C771        C772   1.404       .  A
C771        H776   1.083       .  S
C772        C773   1.409       .  A
C772        H777   1.083       .  S
C773        C774   1.404       .  A
C779        C780   1.406       .  A
C779        C784   1.404       .  A
C779        H785   1.084       .  S
C780        C781   1.403       .  A
C781        C782   1.397       .  A
C781        H786   1.083       .  S
C782        C783   1.405       .  A
C782        H787   1.084       .  S
C783        C784   1.406       .  A
C784        H788   1.082       .  S
C789        C790   1.339       .  D
C789        H791   1.087       .  S
C790        H792   1.087       .  S
C793        C794   1.406       .  A
C793        C798   1.395       .  A
C793        H799   1.082       .  S
C794        C795   1.405       .  A
C795        C796   1.400       .  A
C795        H800   1.084       .  S
C796        C797   1.406       .  A
C796        H801   1.082       .  S
C797        C798   1.404       .  A
C798        H802   1.084       .  S
C803        C804   1.393       .  A
C803        C808   1.381       .  A
C803        H809   1.086       .  S
C804        C805   1.410       .  A
C805        C806   1.395       .  A
C805        H810   1.081       .  S
C806        C807   1.393       .  A
C806        H811   1.085       .  S
C807        C808   1.413       .  A
C808        H812   1.082       .  S
C813        C814   1.404       .  A
C813        C818   1.401       .  A
C813        H819   1.083       .  S
C814        C815   1.406       .  A
C815        C816   1.410       .  A
C815        H820   1.083       .  S
C816        C817   1.409       .  A
C816        H821   1.083       .  S
C817        C818   1.408       .  A
C818        H822   1.083       .  S
C823        C824   1.401       .  A
C823        C828   1.399       .  A
C823        H829   1.084       .  S
C824        C825   1.413       .  A
C825        C826   1.407       .  A
C825        H830   1.083       .  S
C826        C827   1.404       .  A
C826        H831   1.084       .  S
C827        C828   1.406       .  A
C828        H832   1.083       .  S
C833        C834   1.399       .  A
C833        C838   1.390       .  A
C833        H839   1.084       .  S
C834        C835   1.403       .  A
C835        C836   1.396       .  A
C835        H840   1.083       .  S
C836        C837   1.404       .  A
C836        H841   1.084       .  S
C837        C838   1.405       .  A
C843        C844   1.332       .  D
C843        H845   1.085       .  S
C844        H846   1.085       .  S
