geometry optimzed in LAMMPS
_audit_creation_date              2020-12-01 
_audit_creation_method            'lammps2cif' 
_symmetry_space_group_name_H-M    'P1' 
_symmetry_Int_Tables_number       1 
_symmetry_cell_setting            triclinic 
loop_ 
_symmetry_equiv_pos_as_xyz 
  x,y,z 
_cell_length_a                    35.03961331 
_cell_length_b                    43.73106571616795 
_cell_length_c                    43.715606821124155 
_cell_angle_alpha                 90.02367063418758 
_cell_angle_beta                  89.72383962340787 
_cell_angle_gamma                 90.24880443835909 
loop_ 
_atom_site_label 
_atom_site_type_symbol 
_atom_site_fract_x 
_atom_site_fract_y 
_atom_site_fract_z 
_atom_site_charge 
N1          N  0.08079774  0.30754965  0.09938027    -0.03200
C2          C  0.05061984  0.29407004  0.11430344    -0.00600
C3          C  0.04785427  0.26425355  0.10415919    -0.23500
C4          C  0.07689237  0.25990274  0.08285271    -0.23700
C5          C  0.09744903  0.28714211  0.08023257    -0.00700
H6          H  0.02896778  0.24674727  0.11304208     0.13000
H7          H  0.08326270  0.23849626  0.07152844     0.13100
N8          N  0.07429632  0.01961750  0.15094287    -0.03200
C9          C  0.04409449  0.03554424  0.13891943    -0.00600
C10         C  0.04365066  0.06382098  0.15294322    -0.23500
C11         C  0.07346072  0.06458758  0.17371935    -0.23700
C12         C  0.09297169  0.03685531  0.17237081    -0.00700
H13         H  0.02634374  0.08317567  0.14641195     0.13000
H14         H  0.08138472  0.08441792  0.18712071     0.13100
Zr15       Zr  0.19196060  0.07482398  0.23533614     2.17500
O16         O  0.12598165  0.08443719  0.25049049    -0.51100
O17         O  0.19668250  0.11129780  0.19018726    -0.74300
O18         O  0.18654761  0.12554982  0.25537882    -0.81100
O19         O  0.15024816  0.00633825  0.19242834    -0.82800
O20         O  0.24526761  0.13610806  0.27483785    -0.78500
O21         O  0.14129721  0.05655918  0.20344136    -0.90100
O22         O  0.25536918  0.10603853  0.16964022    -0.76100
O23         O  0.25585369  0.09299366  0.23452055    -0.85500
O24         O  0.22126318  0.04219392  0.19889873    -0.85200
O25         O  0.21606615  0.06802386  0.28725168    -0.72000
O26         O  0.18517276  0.02304205  0.25528527    -0.84100
Zr27       Zr  0.30271783  0.00117434  0.26739352     2.26400
Zr28       Zr  0.28150108  0.08584159  0.28512517     2.06300
Zr29       Zr  0.21234308  0.48951037  0.21858142     2.10000
Zr30       Zr  0.28483288  0.06149906  0.19737887     1.78800
O31         O  0.16480309  0.44889181  0.22257038    -0.92900
O32         O  0.33456159  0.10071576  0.19910804    -0.40700
O33         O  0.27890783  0.00903838  0.21604967    -0.77400
O34         O  0.31123574  0.05289433  0.24793751    -0.96100
O35         O  0.27485963  0.03416529  0.30431355    -0.89400
O36         O  0.23595257  0.48387683  0.26991086    -0.92200
C37         C  0.22250706  0.11948035  0.17017461     1.01600
C38         C  0.13057992  0.03188096  0.19031734     1.14500
C39         C  0.21126505  0.14444333  0.26542422     1.05300
O40         O  0.33035952  0.12527438  0.27977593    -0.94400
O41         O  0.34576012  0.06865236  0.30830750    -0.90100
O42         O  0.35248705  0.01776019  0.29996381    -0.83200
C43         C  0.36435050  0.04278060  0.31134374     1.11900
O44         O  0.15238001  0.03655607  0.32765178    -0.96300
Zr45       Zr  0.21110688  0.01559933  0.30645320     1.88900
O46         O  0.29767115  0.46550155  0.31389652    -0.73000
O47         O  0.26800782  0.10269980  0.33714575    -0.52200
O48         O  0.22010627  0.03155729  0.35929908    -0.96900
O49         O  0.15459612  0.48193644  0.30803724    -0.54100
O50         O  0.24013041  0.47228189  0.33662194    -0.73500
C51         C  0.27298089  0.45828447  0.33505912     0.98800
O52         O  0.36563510  0.98906991  0.24645126    -0.62300
O53         O  0.22773873  0.47386259  0.16655852    -0.57100
O54         O  0.30427573  0.44843549  0.25443234    -0.93800
O55         O  0.24834250  0.43873726  0.22973198    -0.92200
O56         O  0.27836506  0.04524259  0.14431408    -0.92600
O57         O  0.34293320  0.04288739  0.17312804    -0.91400
C58         C  0.28039755  0.42994620  0.24273276     1.17700
H59         H  0.20958466  0.04448510  0.17908969     0.33600
H60         H  0.33819558  0.05737355  0.24718858     0.44500
H61         H  0.23316102  0.46321561  0.27732740     0.38000
H62         H  0.20186753  0.08120768  0.30083552     0.34500
H63         H  0.32350432  0.11880775  0.18891331     0.26300
H64         H  0.25331697  0.08570436  0.34647421     0.32200
H65         H  0.20447540  0.01706108  0.37150179     0.38100
H66         H  0.25429195  0.05445195  0.13705826     0.32600
H67         H  0.21972336  0.49121135  0.15357804     0.31500
H68         H  0.17543319  0.43180337  0.21038064     0.33100
H69         H  0.15678500  0.47151930  0.32801011     0.32100
H70         H  0.36045943  0.03867447  0.19029083     0.36100
H71         H  0.37909295  0.00891934  0.24432849     0.28800
H72         H  0.11976757  0.10510126  0.24275209     0.33100
H73         H  0.13901689  0.04516625  0.30974531     0.35900
H74         H  0.26081376  0.97987830  0.16457465     0.28500
H75         H  0.37944688  0.97810505  0.26280854     0.41400
H76         H  0.33439502  0.13299535  0.30080565     0.31500
H77         H  0.33613432  0.10679048  0.22087010     0.39100
H78         H  0.16090712  0.46627978  0.29249772     0.30900
H79         H  0.24922318  0.11938970  0.33492409     0.31000
H80         H  0.12647504  0.08646499  0.27300841     0.31300
N81         N  0.41941331  0.27153164  0.39825512    -0.03200
C82         C  0.40209041  0.29051267  0.41847688    -0.00600
C83         C  0.42151963  0.31840964  0.41694948    -0.23500
C84         C  0.45049490  0.31589702  0.39532771    -0.23700
C85         C  0.44888508  0.28651647  0.38398959    -0.00700
H86         H  0.41443828  0.33909860  0.42929116     0.13000
H87         H  0.46848405  0.33431075  0.38706653     0.13100
N88         N  0.42119183  0.05645975  0.34820449    -0.03200
C89         C  0.45085429  0.04082566  0.36107890    -0.00600
C90         C  0.44739227  0.50789802  0.35352730    -0.23500
C91         C  0.41629325  0.50516918  0.33401862    -0.25700
C92         C  0.40196985  0.03800909  0.32849633    -0.00700
H93         H  0.46435821  0.48924696  0.36213521     0.13000
H94         H  0.40635221  0.48396466  0.32398819     0.13100
N95         N  0.23552402  0.16333312  0.12744044    -0.03200
C96         C  0.21231334  0.14499042  0.14590341    -0.00600
C97         C  0.17510418  0.15296218  0.13899245    -0.23500
C98         C  0.17585250  0.17549725  0.11628414    -0.23700
C99         C  0.21353515  0.18231295  0.10905655    -0.00700
H100        H  0.14968671  0.14301317  0.14908716     0.13000
H101        H  0.15109747  0.18597713  0.10606669     0.13100
N102        N  0.01463413  0.16635202  0.12324876    -0.03200
C103        C  0.03741409  0.18352189  0.14290477    -0.00600
C104        C  0.07473040  0.17581721  0.13575553    -0.23500
C105        C  0.07442101  0.15394623  0.11232569    -0.23700
C106        C  0.03689481  0.14817796  0.10402177    -0.00700
H107        H  0.09986248  0.18481811  0.14690063     0.13000
H108        H  0.09937824  0.14344934  0.10222074     0.13100
Zr109      Zr  0.44143588  0.30267508  0.28479863     2.17500
O110        O  0.37675764  0.28422467  0.29512498    -0.51100
O111        O  0.44579575  0.34826142  0.32132822    -0.74300
O112        O  0.43701715  0.27715874  0.33267842    -0.81100
O113        O  0.39593612  0.34155213  0.21690039    -0.82800
O114        O  0.49907560  0.27375650  0.34541466    -0.78500
O115        O  0.38832443  0.33196004  0.26771587    -0.90100
O116        O  0.00419910  0.37485979  0.31421497    -0.76100
O117        O  0.50558968  0.30778767  0.30113592    -0.85500
O118        O  0.46740344  0.33874508  0.24968840    -0.85200
O119        O  0.46880911  0.25164020  0.27997002    -0.72000
O120        O  0.43483977  0.27989665  0.23433657    -0.84100
Zr121      Zr  0.05616640  0.27408657  0.21181429     2.26400
Zr122      Zr  0.53389958  0.25806866  0.29612983     2.06300
Zr123      Zr  0.45995071  0.31703667  0.19903947     2.10000
Zr124      Zr  0.03566350  0.34602789  0.27041685     1.78800
O125        O  0.41089714  0.30614199  0.16120769    -0.92900
O126        O  0.08283055  0.35022992  0.31097111    -0.40700
O127        O  0.02986364  0.32508072  0.21887205    -0.77400
O128        O  0.06366084  0.29583370  0.26282992    -0.96100
O129        O  0.02876597  0.23836296  0.24663927    -0.89400
O130        O  0.99125774  0.27088410  0.19588266    -0.92200
C131        C  0.47042389  0.36982615  0.32797431     1.01600
C132        C  0.37677925  0.34397916  0.24283680     1.14500
C133        C  0.46316962  0.27797877  0.35252848     1.05300
O134        O  0.08688180  0.27111385  0.33295060    -0.94400
O135        O  0.09710370  0.23447469  0.27957726    -0.90100
O136        O  0.11027644  0.24557961  0.22982745    -0.83200
C137        C  0.11876264  0.23273128  0.25515258     1.11900
O138        O  0.40851122  0.20670166  0.25468735    -0.96300
Zr139      Zr  0.46372894  0.22951695  0.22902827     1.88900
O140        O  0.05099061  0.22885661  0.17543983    -0.73000
O141        O  0.52563065  0.20844886  0.32054432    -0.52200
O142        O  0.48473742  0.17985906  0.24757923    -0.96900
O143        O  0.40596997  0.21995196  0.20008034    -0.54100
O144        O  0.49251898  0.20109021  0.18352140    -0.73500
C145        C  0.02655878  0.20717225  0.16904455     0.98800
O146        O  0.12223989  0.28670451  0.19873694    -0.62300
O147        O  0.97933574  0.37222467  0.18119546    -0.57100
O148        O  0.06075536  0.30459110  0.16622667    -0.93800
O149        O  0.99979031  0.30960179  0.15142593    -0.92200
O150        O  0.03074746  0.39733810  0.24905304    -0.92600
O151        O  0.09593599  0.36554276  0.25026177    -0.91400
C152        C  0.03573807  0.30427898  0.14533577     1.17700
H153        H  0.45454832  0.35817290  0.25136968     0.33600
H154        H  0.09075866  0.29729949  0.26704638     0.44500
H155        H  0.98840702  0.26300260  0.17535822     0.38000
H156        H  0.45622163  0.23782591  0.29399740     0.34500
H157        H  0.06895297  0.34463125  0.32995248     0.26300
H158        H  0.53355097  0.19349734  0.30476648     0.32200
H159        H  0.47957076  0.18031343  0.26986213     0.38100
H160        H  0.00607890  0.40533369  0.25664082     0.32600
H161        H  0.00675566  0.37543545  0.18560646     0.31500
H162        H  0.42414315  0.29467027  0.14479390     0.33100
H163        H  0.41222024  0.20206094  0.18719432     0.32100
H164        H  0.09865145  0.35567981  0.22997261     0.36100
H165        H  0.12526148  0.28286559  0.17653176     0.28800
H166        H  0.37071260  0.28978326  0.31656404     0.33100
H167        H  0.41060181  0.18435912  0.25149694     0.35900
H168        H  0.97841130  0.36926858  0.15878463     0.28500
H169        H  0.12428573  0.30917020  0.20108121     0.41400
H170        H  0.07664446  0.28733210  0.34644450     0.31500
H171        H  0.10088976  0.33322646  0.30757540     0.39100
H172        H  0.40451099  0.23747787  0.18583826     0.30900
H173        H  0.54622308  0.20765586  0.33595818     0.31000
H174        H  0.37874450  0.26163391  0.29510601     0.31300
N175        N  0.26327700  0.41358759  0.37730866    -0.03200
C176        C  0.28638479  0.39522813  0.39536949    -0.00600
C177        C  0.32357346  0.40325330  0.38794145    -0.23500
C178        C  0.32282075  0.42604689  0.36543291    -0.23700
C179        C  0.28508884  0.43294794  0.35899017    -0.00700
H180        H  0.34888587  0.39306515  0.39754534     0.13000
H181        H  0.34755536  0.43670540  0.35497799     0.13100
N182        N  0.48234649  0.41267736  0.37248339    -0.03200
C183        C  0.45968011  0.39411518  0.35386906    -0.00600
C184        C  0.42236272  0.40052578  0.36237256    -0.23500
C185        C  0.42264713  0.42301243  0.38529782    -0.23700
C186        C  0.46009228  0.43057589  0.39210672    -0.00700
H187        H  0.39712784  0.39011831  0.35263943     0.13000
H188        H  0.39778958  0.43270063  0.39627909     0.13100
Zr189      Zr  0.44731120  0.01935209  0.46080111     2.17500
O190        O  0.38094900  0.03354314  0.45199825    -0.51100
O191        O  0.44693794  0.47663432  0.42472716    -0.74300
O192        O  0.43938848  0.04395931  0.41304641    -0.81100
O193        O  0.40594718  0.47817114  0.02839038    -0.82800
O194        O  0.50052790  0.05442582  0.39973123    -0.78500
O195        O  0.39175326  0.49291009  0.47971136    -0.90100
O196        O  0.00500165  0.45502054  0.43482851    -0.76100
O197        O  0.51105988  0.01844942  0.44208819    -0.85500
O198        O  0.47040486  0.48563241  0.49534295    -0.85200
O199        O  0.47121505  0.07137498  0.46680559    -0.72000
O200        O  0.43942360  0.04000004  0.01393868    -0.84100
Zr201      Zr  0.05271459  0.05694284  0.03573681     2.26400
Zr202      Zr  0.53629808  0.06928753  0.44895213     2.06300
Zr203      Zr  0.46763684  0.50537478  0.04603825     2.10000
Zr204      Zr  0.03594000  0.98061623  0.48035719     1.78800
O205        O  0.41789907  0.51111410  0.08470024    -0.92900
O206        O  0.08775532  0.97413993  0.44345926    -0.40700
O207        O  0.02535623  0.00614331  0.02974132    -0.77400
O208        O  0.06464402  0.03113571  0.48720690    -0.96100
O209        O  0.02829434  0.09285037  0.00028683    -0.89400
O210        O  0.98802181  0.06137816  0.05138647    -0.92200
C211        C  0.47133995  0.45517552  0.41764495     1.01600
C212        C  0.38604614  0.47482221  0.00317439     1.14500
C213        C  0.46511997  0.04748216  0.39292152     1.05300
O214        O  0.08689569  0.05429459  0.41599533    -0.94400
O215        O  0.09883976  0.09366518  0.46992695    -0.90100
O216        O  0.10897777  0.08322034  0.01915960    -0.83200
C217        C  0.12038063  0.09510505  0.49431717     1.11900
O218        O  0.40919173  0.11654336  0.00032457    -0.96300
Zr219      Zr  0.46592257  0.09128203  0.02002361     1.88900
O220        O  0.05012535  0.10381730  0.07009960    -0.73000
O221        O  0.52137818  0.11940336  0.42810384    -0.52200
O222        O  0.47716824  0.14250238  0.99992117    -0.96900
O223        O  0.41370161  0.09040290  0.05691640    -0.54100
O224        O  0.49485708  0.12170195  0.06389952    -0.73500
C225        C  0.02551145  0.12487339  0.07764149     0.98800
O226        O  0.11103205  0.03109416  0.05154961    -0.62300
O227        O  0.97972495  0.45716095  0.06512449    -0.57100
O228        O  0.05508041  0.04285281  0.08761545    -0.93800
O229        O  0.99747620  0.02027519  0.09738977    -0.92200
O230        O  0.02657744  0.43247216  0.50016161    -0.92600
O231        O  0.09229984  0.95591146  0.50120621    -0.91400
C232        C  0.03067998  0.03178772  0.10604514     1.17700
H233        H  0.45763830  0.46606650  0.49383532     0.33600
H234        H  0.09160487  0.02967272  0.48288329     0.44500
H235        H  0.98525863  0.06893474  0.07198738     0.38000
H236        H  0.45716927  0.08482445  0.45348645     0.34500
H237        H  0.07581345  0.97703574  0.42319379     0.26300
H238        H  0.52226848  0.13336664  0.44591230     0.32200
H239        H  0.46926965  0.15649996  0.01657650     0.38100
H240        H  0.00145418  0.42537192  0.49266037     0.32600
H241        H  0.96827830  0.44341376  0.04966824     0.31500
H242        H  0.42881715  0.50205295  0.10346849     0.33100
H243        H  0.42069574  0.07374246  0.07110874     0.32100
H244        H  0.10097550  0.96973152  0.51773719     0.36100
H245        H  0.10279586  0.01032363  0.05785185     0.28800
H246        H  0.37395022  0.02425374  0.43211156     0.33100
H247        H  0.40355126  0.10616242  0.98073069     0.35900
H248        H  0.00759077  0.45534343  0.06181390     0.28500
H249        H  0.12462060  0.01871315  0.55364549     0.41400
H250        H  0.07843604  0.03453572  0.40722492     0.31500
H251        H  0.10463679  0.99214933  0.44594164     0.39100
H252        H  0.39146973  0.08205372  0.04573607     0.30900
H253        H  0.54415164  0.12498236  0.41579183     0.31000
H254        H  0.38129262  0.05585751  0.44819491     0.31300
N255        N  0.16456178  0.18955149  0.27134964    -0.03200
C256        C  0.19904224  0.17770011  0.26201323    -0.00600
C257        C  0.21199772  0.19575041  0.23803470    -0.23500
C258        C  0.18526649  0.21876482  0.23332251    -0.23700
C259        C  0.15604783  0.21466206  0.25448102    -0.00700
H260        H  0.23648550  0.19115623  0.22359260     0.13000
H261        H  0.18642766  0.23588052  0.21546741     0.13100
N262        N  0.16832390  0.13806785  0.47943719    -0.03200
C263        C  0.15766549  0.11092638  0.99428738    -0.00600
C264        C  0.18622107  0.10557686  0.01544262    -0.23500
C265        C  0.21439077  0.12774413  0.01100793    -0.23700
C266        C  0.20288183  0.14649063  0.98722874    -0.00700
H267        H  0.18583751  0.08844515  0.03329737     0.13000
H268        H  0.23864656  0.13159997  0.02577301     0.13100
Zr269      Zr  0.19547640  0.24875490  0.01752276     2.17500
O270        O  0.12953920  0.24035582  0.00192901    -0.51100
O271        O  0.19933085  0.21422576  0.06375889    -0.74300
O272        O  0.19224504  0.19744060  0.99925053    -0.81100
O273        O  0.15369386  0.31572623  0.05797104    -0.82800
O274        O  0.24913680  0.19038511  0.47620840    -0.78500
O275        O  0.14439153  0.26500825  0.04953995    -0.90100
O276        O  0.25841364  0.21990256  0.08319572    -0.76100
O277        O  0.25951294  0.23129380  0.01612784    -0.85500
O278        O  0.22525161  0.28176114  0.05349147    -0.85200
O279        O  0.22025292  0.25746728  0.46609815    -0.72000
O280        O  0.18727444  0.29990848  0.99708304    -0.84100
Zr281      Zr  0.30669798  0.32559624  0.48512503     2.26400
Zr282      Zr  0.28586898  0.24074904  0.46766000     2.06300
Zr283      Zr  0.21719950  0.33303538  0.03364978     2.10000
Zr284      Zr  0.28889856  0.26319273  0.05256006     1.78800
O285        O  0.16762430  0.37123984  0.02689674    -0.92900
O286        O  0.33627463  0.22293580  0.04652897    -0.40700
O287        O  0.27724028  0.31134805  0.03080035    -0.77400
O288        O  0.31506920  0.27397773  0.50487696    -0.96100
O289        O  0.27872378  0.29221642  0.44873006    -0.89400
O290        O  0.24227816  0.34214904  0.48365873    -0.92200
C291        C  0.22504079  0.20671852  0.08375643     1.01600
C292        C  0.13407055  0.29030923  0.06133563     1.14500
C293        C  0.21624191  0.18150181  0.48771827     1.05300
O294        O  0.33530831  0.20237233  0.47477129    -0.94400
O295        O  0.34699134  0.25995241  0.44045579    -0.90100
O296        O  0.35663066  0.31009822  0.45182018    -0.83200
C297        C  0.36634795  0.28564370  0.43808638     1.11900
O298        O  0.15787953  0.29183585  0.42059851    -0.96300
Zr299      Zr  0.21484964  0.30971078  0.44683435     1.88900
O300        O  0.30109770  0.36228704  0.44011217    -0.73000
O301        O  0.27389460  0.22080067  0.41659544    -0.52200
O302        O  0.22672693  0.29223019  0.39474979    -0.96900
O303        O  0.16066771  0.34396858  0.44942676    -0.54100
O304        O  0.24358106  0.35470167  0.41789512    -0.73500
C305        C  0.27595380  0.36931662  0.41928777     0.98800
O306        O  0.37243138  0.33389434  0.50164959    -0.62300
O307        O  0.23115492  0.35260678  0.08449138    -0.57100
O308        O  0.31403533  0.37341882  0.51065279    -0.93800
O309        O  0.25387117  0.38285190  0.02220381    -0.92200
O310        O  0.28922527  0.27704669  0.10654896    -0.92600
O311        O  0.34949196  0.28322316  0.07123528    -0.91400
C312        C  0.29002045  0.38813995  0.01695779     1.17700
H313        H  0.21430688  0.27960329  0.07375455     0.33600
H314        H  0.34212328  0.26975507  0.50539166     0.44500
H315        H  0.23951654  0.36278161  0.47612868     0.38000
H316        H  0.20584495  0.24407124  0.45288333     0.34500
H317        H  0.34859441  0.22115188  0.06674502     0.26300
H318        H  0.27694982  0.19841554  0.41882144     0.32200
H319        H  0.25256685  0.29994843  0.38953584     0.38100
H320        H  0.29164639  0.29958786  0.10696534     0.32600
H321        H  0.21326645  0.34146278  0.09812131     0.31500
H322        H  0.17674618  0.38927135  0.03851163     0.33100
H323        H  0.16000979  0.35326649  0.42882700     0.32100
H324        H  0.35936239  0.29609864  0.05431164     0.36100
H325        H  0.38407104  0.32898265  0.99976556     0.28800
H326        H  0.12369845  0.21864291  0.00637742     0.33100
H327        H  0.13941488  0.28714769  0.43717727     0.35900
H328        H  0.25651266  0.34417328  0.08949243     0.28500
H329        H  0.37093311  0.33719114  0.52404017     0.41400
H330        H  0.35149471  0.20340679  0.45616977     0.31500
H331        H  0.32128367  0.20381749  0.04441482     0.39100
H332        H  0.16910878  0.36057611  0.46323678     0.30900
H333        H  0.24621805  0.22358453  0.41322199     0.31000
H334        H  0.12985059  0.24201779  0.97936358     0.31300
N335        N  0.32230895  0.38394959  0.23120114    -0.03200
C336        C  0.29261989  0.39684935  0.24701367    -0.00600
C337        C  0.29039423  0.38220542  0.27495463    -0.23500
C338        C  0.31875291  0.36005278  0.27539998    -0.23700
C339        C  0.33904910  0.36143891  0.24788077    -0.00700
H340        H  0.27278986  0.38885100  0.29421561     0.13000
H341        H  0.32541867  0.34584079  0.29490558     0.13100
N342        N  0.33511098  0.43432329  0.01962426    -0.03200
C343        C  0.30079449  0.42518813  0.50572717    -0.00600
C344        C  0.29947366  0.43551390  0.47593682    -0.23500
C345        C  0.32743157  0.45786548  0.47284209    -0.23700
C346        C  0.34615928  0.46083436  0.50077043    -0.00700
H347        H  0.28258906  0.42595264  0.45760495     0.13000
H348        H  0.33473489  0.46936907  0.45167484     0.13100
C349        C  0.26453477  0.42584813  0.11010249    -0.17600
C350        C  0.26280017  0.41180841  0.13843451    -0.19800
C351        C  0.29654404  0.40637266  0.15443748     0.20900
C352        C  0.33223405  0.41545732  0.14263134    -0.02700
C353        C  0.33418927  0.42679075  0.11314581    -0.05700
C354        C  0.30014674  0.43231252  0.09708568     0.21200
C355        C  0.37007505  0.42991890  0.09875974     0.19300
C356        C  0.40361866  0.42695636  0.11578503    -0.17200
C357        C  0.40140101  0.41941550  0.14672092    -0.19400
C358        C  0.36601119  0.41183343  0.15973444     0.20800
C359        C  0.36337678  0.40049936  0.18935489    -0.32500
C360        C  0.32797508  0.39047363  0.20014494     0.01500
C361        C  0.29522196  0.39203321  0.18221372    -0.23800
C362        C  0.30239242  0.44089102  0.06702695    -0.28400
C363        C  0.33696252  0.43761441  0.05153556     0.07200
C364        C  0.37114828  0.43315304  0.06719944    -0.27000
H365        H  0.23840292  0.42962184  0.09751547     0.11900
H366        H  0.23528880  0.40531873  0.14788391     0.13000
H367        H  0.43130819  0.43019209  0.10519301     0.12100
H368        H  0.42731625  0.41805027  0.15994191     0.11400
H369        H  0.38818284  0.39988614  0.20402177     0.16700
H370        H  0.26799766  0.38423699  0.19131662     0.12700
H371        H  0.27641195  0.44522108  0.05435896     0.15500
H372        H  0.39768796  0.42995591  0.05487073     0.15300
C373        C  0.13833585  0.21543423  0.40526028    -0.17600
C374        C  0.13975709  0.22324484  0.37443802    -0.19800
C375        C  0.13865776  0.20023263  0.35215571     0.20900
C376        C  0.13369289  0.16940413  0.36057842    -0.02700
C377        C  0.13509478  0.16150049  0.39136073    -0.05700
C378        C  0.13790599  0.18461748  0.41379310     0.21200
C379        C  0.13825629  0.13046698  0.39938531     0.19300
C380        C  0.13505414  0.10752640  0.37721666    -0.17200
C381        C  0.13065409  0.11540978  0.34669486    -0.19400
C382        C  0.13198665  0.14618027  0.33814338     0.20800
C383        C  0.13631904  0.15392313  0.30762782    -0.32500
C384        C  0.14725769  0.18353377  0.30001312     0.01500
C385        C  0.14683798  0.20691847  0.32192220    -0.23800
C386        C  0.14407582  0.17640234  0.44399817    -0.28400
C387        C  0.15173031  0.14597748  0.45109465     0.07200
C388        C  0.14834974  0.12311859  0.42891213    -0.27000
H389        H  0.14062391  0.23320603  0.42234268     0.11900
H390        H  0.14348876  0.24702115  0.36809575     0.13000
H391        H  0.13767687  0.08362615  0.38326483     0.12100
H392        H  0.12956662  0.09752291  0.32962102     0.11400
H393        H  0.13503169  0.13652465  0.29024502     0.16700
H394        H  0.15566821  0.22988889  0.31568258     0.12700
H395        H  0.14599647  0.19377763  0.46131746     0.15500
H396        H  0.15572223  0.09970432  0.43438309     0.15300
C397        C  0.10544090  0.41554843  0.31994629    -0.17600
C398        C  0.14489325  0.41143555  0.32030100    -0.19800
C399        C  0.16434426  0.41099216  0.34824215     0.20900
C400        C  0.14385494  0.41220200  0.37604039    -0.02700
C401        C  0.10406824  0.41273029  0.37558035    -0.05700
C402        C  0.08487127  0.41592874  0.34751274     0.21200
C403        C  0.08348235  0.41028867  0.40322806     0.19300
C404        C  0.10271464  0.41011061  0.43123673    -0.17200
C405        C  0.14230430  0.41314066  0.43177954    -0.19400
C406        C  0.16307154  0.41317456  0.40431082     0.20800
C407        C  0.20269880  0.41397398  0.40451951    -0.32500
C408        C  0.22294715  0.41236226  0.37696839     0.01500
C409        C  0.20394184  0.41026683  0.34897574    -0.23800
C410        C  0.04539437  0.41916441  0.34772154    -0.28400
C411        C  0.02489728  0.41434782  0.37484293     0.07200
C412        C  0.04394705  0.40859472  0.40224762    -0.27000
H413        H  0.09092129  0.41744530  0.29820410     0.11900
H414        H  0.16037888  0.41028786  0.29881231     0.13000
H415        H  0.08706896  0.40884357  0.45264286     0.12100
H416        H  0.15675638  0.41428574  0.45360796     0.11400
H417        H  0.21793758  0.41573590  0.42597472     0.16700
H418        H  0.22014477  0.40890969  0.32784882     0.12700
H419        H  0.03048492  0.42467847  0.32681109     0.15500
H420        H  0.02783424  0.40364281  0.42287688     0.15300
C421        C  0.39595285  0.21760187  0.12655678    -0.17600
C422        C  0.35641548  0.21777358  0.13013469    -0.19800
C423        C  0.33592759  0.19020290  0.12959750     0.20900
C424        C  0.35529029  0.16220008  0.12610696    -0.02700
C425        C  0.39513436  0.16188015  0.12512211    -0.05700
C426        C  0.41547133  0.18976112  0.12477834     0.21200
C427        C  0.41458912  0.13369038  0.12455852     0.19300
C428        C  0.39396888  0.10617446  0.12406970    -0.17200
C429        C  0.35425031  0.10661363  0.12244847    -0.19400
C430        C  0.33480741  0.13452364  0.12349829     0.20800
C431        C  0.29519951  0.13538793  0.12210575    -0.32500
C432        C  0.27601287  0.16287113  0.12735758     0.01500
C433        C  0.29635379  0.19002006  0.13211911    -0.23800
C434        C  0.45504019  0.18924317  0.12337081    -0.28400
C435        C  0.47436659  0.16133759  0.12389261     0.07200
C436        C  0.45430502  0.13363351  0.12456872    -0.27000
H437        H  0.41138691  0.23912416  0.12637859     0.11900
H438        H  0.34184163  0.23942587  0.13257075     0.13000
H439        H  0.40857526  0.08439200  0.12422522     0.12100
H440        H  0.33872929  0.08518700  0.12104203     0.11400
H441        H  0.27915405  0.11469605  0.11740969     0.16700
H442        H  0.28115691  0.21104194  0.13684645     0.12700
H443        H  0.47101220  0.21050643  0.12246133     0.15500
H444        H  0.46970932  0.11220186  0.12508091     0.15300
C445        C  0.48502156  0.17898621  0.38121792    -0.17600
C446        C  0.48561545  0.15019091  0.36804198    -0.19800
C447        C  0.45117841  0.13503929  0.36227070     0.20900
C448        C  0.41588526  0.14913119  0.36826901    -0.02700
C449        C  0.41537483  0.17910488  0.37861579    -0.05700
C450        C  0.45004789  0.19344738  0.38630781     0.21200
C451        C  0.38038486  0.19482152  0.38099710     0.19300
C452        C  0.34605874  0.17946920  0.37491643    -0.17200
C453        C  0.34640408  0.14829601  0.36807587    -0.19400
C454        C  0.38124619  0.13306949  0.36451216     0.20800
C455        C  0.38250578  0.10194568  0.35807785    -0.32500
C456        C  0.41765997  0.08839880  0.35153765     0.01500
C457        C  0.45144242  0.10547364  0.35179361    -0.23800
C458        C  0.44928460  0.22267416  0.39763629    -0.28400
C459        C  0.41557402  0.23948961  0.39653984     0.07200
C460        C  0.38093313  0.22579111  0.38844537    -0.27000
H461        H  0.51177271  0.19027212  0.38658349     0.11900
H462        H  0.51281563  0.13933856  0.36348496     0.13000
H463        H  0.31908569  0.19134071  0.37606847     0.12100
H464        H  0.31963363  0.13633935  0.36486237     0.11400
H465        H  0.35672922  0.08829692  0.35928328     0.16700
H466        H  0.47845989  0.09465306  0.34640854     0.12700
H467        H  0.47579801  0.23379521  0.40408395     0.15500
H468        H  0.35518890  0.23929986  0.38686875     0.15300
C469        C  0.01433471  0.39975284  0.10813992    -0.17600
C470        C  0.01290189  0.42761973  0.12313587    -0.19800
C471        C  0.04682987  0.44260322  0.13074567     0.20900
C472        C  0.08252579  0.42997958  0.12337993    -0.02700
C473        C  0.08391682  0.40070725  0.11131327    -0.05700
C474        C  0.04964975  0.38585051  0.10324530     0.21200
C475        C  0.11921504  0.38551281  0.10931763     0.19300
C476        C  0.15322165  0.40149520  0.11500534    -0.17200
C477        C  0.15197265  0.43223883  0.12360210    -0.19400
C478        C  0.11667307  0.44625907  0.12891622     0.20800
C479        C  0.11442161  0.47626369  0.13941527    -0.32500
C480        C  0.07998089  0.98860919  0.14350874     0.01500
C481        C  0.04561445  0.47045248  0.14502231    -0.23800
C482        C  0.05102382  0.35609869  0.09339390    -0.28400
C483        C  0.08454227  0.33954680  0.09730286     0.07200
C484        C  0.11902839  0.35412439  0.10420707    -0.27000
H485        H  0.98795557  0.38820600  0.10222516     0.11900
H486        H  0.98550138  0.43782845  0.12821098     0.13000
H487        H  0.18053561  0.39024847  0.11294804     0.12100
H488        H  0.17836406  0.44453931  0.12753224     0.11400
H489        H  0.13976425  0.49045105  0.14046207     0.16700
H490        H  0.01823898  0.47997430  0.15163346     0.12700
H491        H  0.02480361  0.34431557  0.08733908     0.15500
H492        H  0.14464240  0.34092163  0.10780058     0.15300
N493        N  0.08216625  0.30525253  0.60255205    -0.03200
C494        C  0.05361105  0.29013567  0.61789080    -0.00600
C495        C  0.05408773  0.25998898  0.60855164    -0.23500
C496        C  0.08321423  0.25721909  0.58707938    -0.23700
C497        C  0.10071893  0.28573114  0.58358439    -0.00700
H498        H  0.03719707  0.24145037  0.61789112     0.13000
H499        H  0.09166338  0.23607405  0.57614055     0.13100
N500        N  0.08217493  0.01874971  0.65121715    -0.03200
C501        C  0.05347337  0.03355794  0.63606109    -0.00600
C502        C  0.05298009  0.06343052  0.64621399    -0.23500
C503        C  0.08173612  0.06642424  0.66781014    -0.23700
C504        C  0.10012716  0.03835161  0.67064763    -0.00700
H505        H  0.03570860  0.08176520  0.63727835     0.13000
H506        H  0.08941864  0.08752330  0.67922970     0.13100
Zr507      Zr  0.19612110  0.07608454  0.73610276     2.17500
O508        O  0.12983431  0.08521989  0.75034502    -0.51100
O509        O  0.19995995  0.11148089  0.69045316    -0.74300
O510        O  0.19133156  0.12710672  0.75515908    -0.81100
O511        O  0.15495830  0.00847078  0.69349175    -0.82800
O512        O  0.24877230  0.13718462  0.77722858    -0.78500
O513        O  0.14587749  0.05885396  0.70354741    -0.90100
O514        O  0.25850123  0.10593787  0.66961813    -0.76100
O515        O  0.26020622  0.09392926  0.73582735    -0.85500
O516        O  0.22566720  0.04292905  0.70023024    -0.85200
O517        O  0.21924354  0.06992472  0.78836259    -0.72000
O518        O  0.18761934  0.02470817  0.75629038    -0.84100
Zr519      Zr  0.30445783  0.00230126  0.76972966     2.26400
Zr520      Zr  0.28496553  0.08687039  0.78675849     2.06300
Zr521      Zr  0.21211425  0.48829771  0.71901658     2.10000
Zr522      Zr  0.28912592  0.06214821  0.69889408     1.78800
O523        O  0.16431936  0.44835391  0.72660846    -0.92900
O524        O  0.33776044  0.10228074  0.70051510    -0.40700
O525        O  0.28211414  0.00946866  0.71772692    -0.77400
O526        O  0.31469663  0.05378268  0.74981426    -0.96100
O527        O  0.27666826  0.03557526  0.80643389    -0.89400
O528        O  0.23668846  0.48292880  0.77012693    -0.92200
C529        C  0.22535037  0.11928808  0.67005533     1.01600
C530        C  0.13578459  0.03402478  0.69050728     1.14500
C531        C  0.21539637  0.14568080  0.76666784     1.05300
O532        O  0.33097866  0.12871567  0.78457126    -0.94400
O533        O  0.34993662  0.06925631  0.80801450    -0.90100
O534        O  0.35453593  0.01780594  0.80209169    -0.83200
C535        C  0.36762625  0.04309820  0.81181322     1.11900
O536        O  0.15599089  0.04294245  0.82803976    -0.96300
Zr537      Zr  0.21245984  0.01772933  0.80778003     1.88900
O538        O  0.29778725  0.46558406  0.81503487    -0.73000
O539        O  0.27385056  0.10078423  0.83991856    -0.52200
O540        O  0.21504864  0.03037996  0.86197429    -0.96900
O541        O  0.15870276  0.47773699  0.80692277    -0.54100
O542        O  0.23958984  0.47145077  0.83677657    -0.73500
C543        C  0.27261935  0.45794164  0.83574840     0.98800
O544        O  0.36621557  0.98908913  0.74744478    -0.62300
O545        O  0.22576926  0.47096228  0.66719720    -0.57100
O546        O  0.30435593  0.44746190  0.75425793    -0.93800
O547        O  0.24880245  0.43774031  0.72894584    -0.92200
O548        O  0.28478211  0.05037705  0.64458263    -0.92600
O549        O  0.34756295  0.03947267  0.67880150    -0.91400
C550        C  0.28085501  0.42905550  0.74198380     1.17700
H551        H  0.21452808  0.04512589  0.68018573     0.33600
H552        H  0.34181970  0.05796821  0.74918440     0.44500
H553        H  0.23427993  0.46223139  0.77744744     0.38000
H554        H  0.20510389  0.08351479  0.80160556     0.34500
H555        H  0.33114045  0.11475571  0.71867650     0.26300
H556        H  0.25796241  0.08401984  0.84834653     0.32200
H557        H  0.24260042  0.03144443  0.86677408     0.38100
H558        H  0.27949604  0.02815827  0.64367931     0.32600
H559        H  0.21674433  0.48772921  0.65388654     0.31500
H560        H  0.14283089  0.45863451  0.73712396     0.33100
H561        H  0.16741990  0.46286616  0.79139318     0.32100
H562        H  0.34164897  0.01742099  0.67654280     0.36100
H563        H  0.36059934  0.98331360  0.72602287     0.28800
H564        H  0.12386453  0.10607452  0.74301536     0.33100
H565        H  0.13879379  0.04470630  0.81023003     0.35900
H566        H  0.25922054  0.97717894  0.66527593     0.28500
H567        H  0.38025965  0.00870550  0.74563647     0.41400
H568        H  0.33328949  0.13573848  0.80602793     0.31500
H569        H  0.36178910  0.09195388  0.70619185     0.39100
H570        H  0.13675586  0.48783197  0.79704880     0.30900
H571        H  0.25651793  0.11856626  0.83906035     0.31000
H572        H  0.12982026  0.08668076  0.77290093     0.31300
N573        N  0.41654000  0.27008011  0.89709039    -0.03200
C574        C  0.39939153  0.28936836  0.91696146    -0.00600
C575        C  0.41832265  0.31740782  0.91451480    -0.23500
C576        C  0.44713959  0.31449069  0.89273931    -0.23700
C577        C  0.44576879  0.28475922  0.88224805    -0.00700
H578        H  0.41116747  0.33831373  0.92645055     0.13000
H579        H  0.46514984  0.33269780  0.88411498     0.13100
N580        N  0.42296319  0.05572002  0.84945057    -0.03200
C581        C  0.45375406  0.04053996  0.86102374    -0.00600
C582        C  0.44869026  0.51054187  0.85003730    -0.23500
C583        C  0.41880154  0.50840232  0.82952733    -0.25700
C584        C  0.40587565  0.03858143  0.82761632    -0.00700
H585        H  0.46500681  0.49152088  0.85875720     0.13000
H586        H  0.40954429  0.48748907  0.81851584     0.13100
N587        N  0.23623585  0.16273725  0.62652757    -0.03200
C588        C  0.21395598  0.14455196  0.64568682    -0.00600
C589        C  0.17660743  0.15344118  0.64042311    -0.23500
C590        C  0.17652376  0.17648632  0.61810103    -0.23700
C591        C  0.21393177  0.18270350  0.60945554    -0.00700
H592        H  0.15168207  0.14402037  0.65170262     0.13000
H593        H  0.15145627  0.18788651  0.60943964     0.13100
N594        N  0.01540125  0.16147669  0.62690547    -0.03200
C595        C  0.03753712  0.17851660  0.64712169    -0.00600
C596        C  0.07506473  0.17090047  0.64074946    -0.23500
C597        C  0.07556973  0.14902414  0.61735083    -0.23700
C598        C  0.03831766  0.14321615  0.60828183    -0.00700
H599        H  0.09978514  0.18020143  0.65222897     0.13000
H600        H  0.10090235  0.13876390  0.60761179     0.13100
Zr601      Zr  0.44015563  0.30161585  0.78571078     2.17500
O602        O  0.37908077  0.28648917  0.80849684    -0.51100
O603        O  0.44615840  0.34745601  0.82198073    -0.74300
O604        O  0.43528399  0.27221509  0.83121938    -0.81100
O605        O  0.39549494  0.34123148  0.71752633    -0.82800
O606        O  0.49688464  0.27143638  0.84447899    -0.78500
O607        O  0.38733369  0.33042380  0.76790499    -0.90100
O608        O  0.00469831  0.37134871  0.81594763    -0.76100
O609        O  0.50441792  0.30506537  0.80194466    -0.85500
O610        O  0.46699521  0.33766629  0.75108655    -0.85200
O611        O  0.46566739  0.25026084  0.77811461    -0.72000
O612        O  0.43144449  0.28017812  0.73455147    -0.84100
Zr613      Zr  0.05552038  0.27047554  0.71419255     2.26400
Zr614      Zr  0.53076390  0.25469319  0.79499940     2.06300
Zr615      Zr  0.45901612  0.31706615  0.69987118     2.10000
Zr616      Zr  0.03583985  0.34215463  0.77192062     1.78800
O617        O  0.40977992  0.30619615  0.66220536    -0.92900
O618        O  0.08450987  0.33586637  0.81107499    -0.40700
O619        O  0.02571512  0.31689033  0.72515783    -0.77400
O620        O  0.06507049  0.29249806  0.76472035    -0.96100
O621        O  0.02975918  0.23450651  0.74949695    -0.89400
O622        O  0.99086777  0.26591436  0.69795688    -0.92200
C623        C  0.47108225  0.36876287  0.82876071     1.01600
C624        C  0.37624458  0.34306342  0.74333413     1.14500
C625        C  0.46080311  0.27479524  0.85137125     1.05300
O626        O  0.08548061  0.26806800  0.83703928    -0.94400
O627        O  0.09822993  0.23213848  0.78284527    -0.90100
O628        O  0.11041594  0.24379743  0.73317760    -0.83200
C629        C  0.11977456  0.23118414  0.75829358     1.11900
O630        O  0.40011663  0.21026265  0.74921959    -0.96300
Zr631      Zr  0.45925269  0.22964710  0.72661757     1.88900
O632        O  0.05016650  0.22424785  0.67912593    -0.73000
O633        O  0.51819442  0.20458702  0.81715239    -0.52200
O634        O  0.46401399  0.17762832  0.74608668    -0.96900
O635        O  0.40891237  0.22675604  0.68864057    -0.54100
O636        O  0.49009273  0.20004792  0.68243316    -0.73500
C637        C  0.02604085  0.20233789  0.67282665     0.98800
O638        O  0.11649816  0.28569711  0.69117121    -0.62300
O639        O  0.98356649  0.36689791  0.68337880    -0.57100
O640        O  0.06141832  0.30207157  0.66982063    -0.93800
O641        O  0.00097041  0.30455537  0.65383622    -0.92200
O642        O  0.03063063  0.39437806  0.75303439    -0.92600
O643        O  0.09407989  0.36715537  0.75392275    -0.91400
C644        C  0.03725642  0.30033908  0.64843214     1.17700
H645        H  0.45469840  0.35721522  0.75308256     0.33600
H646        H  0.09215125  0.29406552  0.76870145     0.44500
H647        H  0.98797803  0.25786706  0.67751956     0.38000
H648        H  0.45251158  0.23605570  0.79138348     0.34500
H649        H  0.09645764  0.35616387  0.81357571     0.26300
H650        H  0.53574013  0.20341734  0.83479894     0.32200
H651        H  0.46919860  0.16474246  0.72793085     0.38100
H652        H  0.02844785  0.39229351  0.73055742     0.32600
H653        H  0.97357667  0.36656384  0.66226258     0.31500
H654        H  0.41720412  0.31842664  0.64405221     0.33100
H655        H  0.38708682  0.23827894  0.69724274     0.32100
H656        H  0.10433602  0.35326970  0.73803091     0.36100
H657        H  0.13302111  0.29250182  0.70822257     0.28800
H658        H  0.36140735  0.28240149  0.79135185     0.33100
H659        H  0.38576187  0.22880240  0.75524372     0.35900
H660        H  0.96689719  0.38151964  0.69434890     0.28500
H661        H  0.12845649  0.26680196  0.68314791     0.41400
H662        H  0.07739731  0.25657010  0.85547585     0.31500
H663        H  0.07020564  0.33253900  0.83037131     0.39100
H664        H  0.40054853  0.20509322  0.68885610     0.30900
H665        H  0.49248364  0.20637431  0.82643781     0.31000
H666        H  0.36900204  0.30495658  0.81883394     0.31300
N667        N  0.26152338  0.41354798  0.87803545    -0.03200
C668        C  0.28412009  0.39408247  0.89519704    -0.00600
C669        C  0.32157592  0.40134976  0.88772179    -0.23500
C670        C  0.32146406  0.42457057  0.86570642    -0.23700
C671        C  0.28395188  0.43246003  0.85966260    -0.00700
H672        H  0.34667693  0.39038784  0.89685380     0.13000
H673        H  0.34649155  0.43470879  0.85518661     0.13100
N674        N  0.48355607  0.41134092  0.87350015    -0.03200
C675        C  0.46063785  0.39320032  0.85461760    -0.00600
C676        C  0.42333987  0.40021926  0.86274343    -0.23500
C677        C  0.42380891  0.42267108  0.88566662    -0.23700
C678        C  0.46139678  0.42967838  0.89279138    -0.00700
H679        H  0.39798308  0.39025201  0.85275521     0.13000
H680        H  0.39890327  0.43268576  0.89632547     0.13100
Zr681      Zr  0.44774136  0.01798106  0.96336229     2.17500
O682        O  0.38388545  0.03763679  0.95347199    -0.51100
O683        O  0.44791232  0.47512225  0.92602248    -0.74300
O684        O  0.44232057  0.03426950  0.91231394    -0.81100
O685        O  0.40229917  0.48261001  0.52989007    -0.82800
O686        O  0.50008486  0.05593603  0.90159033    -0.78500
O687        O  0.39471306  0.48822014  0.97829735    -0.90100
O688        O  0.00418188  0.45437194  0.93413638    -0.76100
O689        O  0.51151369  0.01622893  0.94557939    -0.85500
O690        O  0.47423358  0.48518142  0.99481228    -0.85200
O691        O  0.47136143  0.07001435  0.96844888    -0.72000
O692        O  0.44054953  0.03979417  0.51219339    -0.84100
Zr693      Zr  0.05756103  0.05333753  0.53817497     2.26400
Zr694      Zr  0.53660296  0.06711275  0.95145099     2.06300
Zr695      Zr  0.46606049  0.50712647  0.54639055     2.10000
Zr696      Zr  0.03138604  0.98397841  0.97842023     1.78800
O697        O  0.41575784  0.51651620  0.58376742    -0.92900
O698        O  0.08226054  0.97967714  0.94029788    -0.40700
O699        O  0.03047785  0.00223544  0.53186266    -0.77400
O700        O  0.06111270  0.03373228  0.98567325    -0.96100
O701        O  0.03138305  0.08923745  0.50337816    -0.89400
O702        O  0.99273963  0.05707218  0.55446469    -0.92200
C703        C  0.47291547  0.45439196  0.91809147     1.01600
C704        C  0.38214446  0.48017177  0.50472292     1.14500
C705        C  0.46682326  0.04459225  0.89354147     1.05300
O706        O  0.08902334  0.05541163  0.91789397    -0.94400
O707        O  0.09787533  0.09330811  0.96903988    -0.90100
O708        O  0.11152818  0.08203042  0.51951374    -0.83200
C709        C  0.11904055  0.09480341  0.99362937     1.11900
O710        O  0.41163327  0.11572299  0.49475573    -0.96300
Zr711      Zr  0.46642840  0.09134051  0.51863228     1.88900
O712        O  0.05197137  0.09840300  0.57495109    -0.73000
O713        O  0.52708206  0.11900626  0.93319028    -0.52200
O714        O  0.48217288  0.14267275  0.50091400    -0.96900
O715        O  0.41247988  0.09413693  0.55379111    -0.54100
O716        O  0.49502619  0.12073234  0.56314694    -0.73500
C717        C  0.02778692  0.12014650  0.58151508     0.98800
O718        O  0.12327061  0.04129120  0.55224912    -0.62300
O719        O  0.97495873  0.45723052  0.56553138    -0.57100
O720        O  0.06305069  0.02358737  0.58387125    -0.93800
O721        O  0.00201634  0.01882339  0.59909179    -0.92200
O722        O  0.01897454  0.43089940  0.99940408    -0.92600
O723        O  0.08761993  0.95923778  0.99943380    -0.91400
C724        C  0.03811220  0.02394103  0.60494385     1.17700
H725        H  0.46265445  0.46517614  0.99303927     0.33600
H726        H  0.08818424  0.03183352  0.98195439     0.44500
H727        H  0.98990911  0.06507022  0.57490339     0.38000
H728        H  0.45748625  0.08291768  0.95449340     0.34500
H729        H  0.07109951  0.98775429  0.92117602     0.26300
H730        H  0.54153459  0.11991892  0.91370082     0.32200
H731        H  0.47059045  0.15654232  0.51622973     0.38100
H732        H  0.99741607  0.42333780  0.98690685     0.32600
H733        H  0.96333606  0.44397286  0.54971278     0.31500
H734        H  0.41653714  0.49856259  0.59754564     0.33100
H735        H  0.39126954  0.08323569  0.54352630     0.32100
H736        H  0.08364510  0.95964765  0.02187069     0.36100
H737        H  0.12674091  0.04878160  0.57345602     0.28800
H738        H  0.38773517  0.05735282  0.94275669     0.33100
H739        H  0.39666326  0.09864846  0.48592410     0.35900
H740        H  0.00278063  0.45424709  0.56297041     0.28500
H741        H  0.12566490  0.02755599  0.03245488     0.41400
H742        H  0.07739762  0.04854327  0.89847159     0.31500
H743        H  0.10194324  0.99490721  0.94598562     0.39100
H744        H  0.40482105  0.11590692  0.55389351     0.30900
H745        H  0.49992823  0.11966997  0.92714322     0.31000
H746        H  0.37390533  0.04362048  0.97384046     0.31300
N747        N  0.16802761  0.18965297  0.77349090    -0.03200
C748        C  0.20286979  0.17883730  0.76408059    -0.00600
C749        C  0.21469008  0.19738539  0.74008006    -0.23500
C750        C  0.18677213  0.21960033  0.73563550    -0.23700
C751        C  0.15803058  0.21449391  0.75698323    -0.00700
H752        H  0.23913173  0.19354015  0.72536897     0.13000
H753        H  0.18683241  0.23676733  0.71781826     0.13100
N754        N  0.16793764  0.13588256  0.97786522    -0.03200
C755        C  0.15836138  0.11250710  0.49533163    -0.00600
C756        C  0.18711627  0.10685542  0.51627393    -0.23500
C757        C  0.21503561  0.12926017  0.51241856    -0.23700
C758        C  0.20328767  0.14846513  0.48914321    -0.00700
H759        H  0.18718062  0.08909122  0.53349819     0.13000
H760        H  0.23947594  0.13274085  0.52708249     0.13100
Zr761      Zr  0.19711038  0.25079151  0.51829443     2.17500
O762        O  0.13175482  0.24309789  0.50095908    -0.51100
O763        O  0.20016876  0.21526008  0.56412555    -0.74300
O764        O  0.19293723  0.19947637  0.50088163    -0.81100
O765        O  0.15481237  0.31675595  0.56011548    -0.82800
O766        O  0.24785831  0.18874456  0.97346804    -0.78500
O767        O  0.14667394  0.26604977  0.55088727    -0.90100
O768        O  0.25820029  0.22182099  0.58529603    -0.76100
O769        O  0.26115922  0.23377517  0.51880366    -0.85500
O770        O  0.22550322  0.28415182  0.55440943    -0.85200
O771        O  0.21727188  0.25608795  0.96503473    -0.72000
O772        O  0.18886158  0.30208661  0.49804341    -0.84100
Zr773      Zr  0.30434749  0.32407416  0.98380762     2.26400
Zr774      Zr  0.28285992  0.23975195  0.96467208     2.06300
Zr775      Zr  0.21774850  0.33560818  0.53514314     2.10000
Zr776      Zr  0.28909714  0.26588962  0.55606772     1.78800
O777        O  0.17172309  0.37723486  0.53483591    -0.92900
O778        O  0.33949212  0.22760881  0.55527118    -0.40700
O779        O  0.28267644  0.31807254  0.53680753    -0.77400
O780        O  0.31473833  0.27198596  0.00162944    -0.96100
O781        O  0.27634154  0.29159618  0.94655492    -0.89400
O782        O  0.24016457  0.34112510  0.98201594    -0.92200
C783        C  0.22530278  0.20787163  0.58470070     1.01600
C784        C  0.13613371  0.29080434  0.56352988     1.14500
C785        C  0.21537997  0.17963662  0.98555521     1.05300
O786        O  0.33001210  0.19908367  0.96269507    -0.94400
O787        O  0.34466455  0.25854835  0.93884458    -0.90100
O788        O  0.35503775  0.30809434  0.95161084    -0.83200
C789        C  0.36429149  0.28410375  0.93710599     1.11900
O790        O  0.15274091  0.29083427  0.92188857    -0.96300
Zr791      Zr  0.21197949  0.30818519  0.94554411     1.88900
O792        O  0.29747350  0.36099134  0.93957999    -0.73000
O793        O  0.26134391  0.22894309  0.91286766    -0.52200
O794        O  0.22147955  0.28679350  0.89455961    -0.96900
O795        O  0.15824529  0.34272783  0.94761221    -0.54100
O796        O  0.24086247  0.35290653  0.91618631    -0.73500
C797        C  0.27293790  0.36787543  0.91839689     0.98800
O798        O  0.36633125  0.34631326  0.99693267    -0.62300
O799        O  0.23574592  0.35182206  0.58639915    -0.57100
O800        O  0.31379768  0.36647826  0.01731011    -0.93800
O801        O  0.25310259  0.38590633  0.52243000    -0.92200
O802        O  0.28310729  0.28125208  0.60953974    -0.92600
O803        O  0.34554069  0.29100614  0.57713034    -0.91400
C804        C  0.28810294  0.39323009  0.51446879     1.17700
H805        H  0.21368385  0.28185541  0.57426252     0.33600
H806        H  0.34174340  0.26763682  0.00161138     0.44500
H807        H  0.23729995  0.36191600  0.97506199     0.38000
H808        H  0.20261852  0.24269863  0.95191609     0.34500
H809        H  0.32895146  0.21009499  0.56689149     0.26300
H810        H  0.28324221  0.23443330  0.89956563     0.32200
H811        H  0.21636485  0.30385704  0.88030189     0.38100
H812        H  0.25639361  0.27667055  0.61549142     0.32600
H813        H  0.23407726  0.33309143  0.59903700     0.31500
H814        H  0.14828828  0.36837795  0.52584400     0.33100
H815        H  0.15915069  0.35291215  0.92744641     0.32100
H816        H  0.36511349  0.27499131  0.57971030     0.36100
H817        H  0.38032068  0.35390421  0.49304766     0.28800
H818        H  0.12499627  0.22170736  0.50613934     0.33100
H819        H  0.14997451  0.30273066  0.90275079     0.35900
H820        H  0.26341633  0.35632858  0.58494851     0.28500
H821        H  0.37550201  0.35705756  0.97831318     0.41400
H822        H  0.34634502  0.20274962  0.98075856     0.31500
H823        H  0.34031297  0.22020288  0.53390042     0.39100
H824        H  0.16623484  0.35855324  0.96246070     0.30900
H825        H  0.25949513  0.20638695  0.91170909     0.31000
H826        H  0.13324168  0.24373450  0.47837481     0.31300
N827        N  0.32276807  0.38287968  0.73116130    -0.03200
C828        C  0.29295826  0.39611314  0.74657537    -0.00600
C829        C  0.29084704  0.38236579  0.77499984    -0.23500
C830        C  0.31920376  0.36033045  0.77614362    -0.23700
C831        C  0.33920839  0.36091188  0.74851662    -0.00700
H832        H  0.27331558  0.38964104  0.79408876     0.13000
H833        H  0.32593896  0.34671359  0.79604268     0.13100
N834        N  0.32934436  0.44082882  0.52028926    -0.03200
C835        C  0.30602345  0.41854833  0.00582958    -0.00600
C836        C  0.30396256  0.42816250  0.97583545    -0.23500
C837        C  0.33221319  0.45016098  0.97171345    -0.23700
C838        C  0.35148971  0.45377458  0.99931663    -0.00700
H839        H  0.28544641  0.41910786  0.95832018     0.13000
H840        H  0.33856036  0.46168912  0.95036841     0.13100
C841        C  0.26237621  0.42084303  0.61068173    -0.17600
C842        C  0.26156383  0.40541065  0.63829263    -0.19800
C843        C  0.29578063  0.39957390  0.65342273     0.20900
C844        C  0.33118415  0.40828642  0.64071859    -0.02700
C845        C  0.33208562  0.42120093  0.61186125    -0.05700
C846        C  0.29747913  0.42845166  0.59741794     0.21200
C847        C  0.36741073  0.42599237  0.59702188     0.19300
C848        C  0.40158171  0.42090822  0.61266580    -0.17200
C849        C  0.40055861  0.41139173  0.64310373    -0.19400
C850        C  0.36546445  0.40454555  0.65707079     0.20800
C851        C  0.36336472  0.39531437  0.68743398    -0.32500
C852        C  0.32791232  0.38690718  0.69960889     0.01500
C853        C  0.29500964  0.38670178  0.68191383    -0.23800
C854        C  0.29857113  0.44114399  0.56881462    -0.28400
C855        C  0.33264840  0.44074066  0.55228749     0.07200
C856        C  0.36733910  0.43392095  0.56627964    -0.27000
H857        H  0.23585553  0.42569501  0.59907376     0.11900
H858        H  0.23433452  0.39900838  0.64831152     0.13000
H859        H  0.42882607  0.42486099  0.60160375     0.12100
H860        H  0.42702003  0.40888811  0.65543197     0.11400
H861        H  0.38848127  0.39596240  0.70175617     0.16700
H862        H  0.26795883  0.37966779  0.69191968     0.12700
H863        H  0.27208867  0.44690027  0.55744491     0.15500
H864        H  0.39338202  0.43258123  0.55298569     0.15300
C865        C  0.13488018  0.21368619  0.90658175    -0.17600
C866        C  0.13918807  0.22185518  0.87608520    -0.19800
C867        C  0.13864154  0.19921741  0.85344716     0.20900
C868        C  0.13115788  0.16848160  0.86095316    -0.02700
C869        C  0.13074691  0.16002632  0.89153104    -0.05700
C870        C  0.13339020  0.18273858  0.91444400     0.21200
C871        C  0.13417754  0.12885371  0.89887737     0.19300
C872        C  0.13084791  0.10633181  0.87628236    -0.17200
C873        C  0.12704396  0.11483873  0.84591469    -0.19400
C874        C  0.13019814  0.14565559  0.83804335     0.20800
C875        C  0.13792772  0.15363772  0.80807351    -0.32500
C876        C  0.15085146  0.18297931  0.80182641     0.01500
C877        C  0.15001727  0.20599806  0.82401195    -0.23800
C878        C  0.14025125  0.17400407  0.94429521    -0.28400
C879        C  0.14993101  0.14381754  0.95022734     0.07200
C880        C  0.14599479  0.12118955  0.92785080    -0.27000
H881        H  0.13702869  0.23116440  0.92401922     0.11900
H882        H  0.14500594  0.24553068  0.87037160     0.13000
H883        H  0.13382588  0.08234814  0.88173271     0.12100
H884        H  0.12604352  0.09736369  0.82844720     0.11400
H885        H  0.13765804  0.13660090  0.79027393     0.16700
H886        H  0.16014094  0.22882091  0.81847717     0.12700
H887        H  0.14231331  0.19098734  0.96200225     0.15500
H888        H  0.15428518  0.09783162  0.93271774     0.15300
C889        C  0.10343859  0.41531415  0.82193926    -0.17600
C890        C  0.14287833  0.41197844  0.82216768    -0.19800
C891        C  0.16236534  0.41157567  0.85001973     0.20900
C892        C  0.14201927  0.41177219  0.87792269    -0.02700
C893        C  0.10225039  0.41121680  0.87753607    -0.05700
C894        C  0.08304376  0.41453377  0.84950613     0.21200
C895        C  0.08168991  0.40777954  0.90512770     0.19300
C896        C  0.10104494  0.40749108  0.93310424    -0.17200
C897        C  0.14059214  0.41155110  0.93363772    -0.19400
C898        C  0.16135593  0.41262649  0.90611742     0.20800
C899        C  0.20108658  0.41402520  0.90607177    -0.32500
C900        C  0.22112849  0.41315772  0.87825390     0.01500
C901        C  0.20186961  0.41137937  0.85046103    -0.23800
C902        C  0.04370128  0.41689577  0.84962700    -0.28400
C903        C  0.02325518  0.41139552  0.87651288     0.07200
C904        C  0.04207572  0.40570149  0.90405726    -0.27000
H905        H  0.08878365  0.41714311  0.80024988     0.11900
H906        H  0.15824027  0.41088830  0.80063205     0.13000
H907        H  0.08548980  0.40541473  0.95449053     0.12100
H908        H  0.15506978  0.41256248  0.95546074     0.11400
H909        H  0.21652878  0.41530732  0.92746546     0.16700
H910        H  0.21785669  0.41030587  0.82920271     0.12700
H911        H  0.02874712  0.42251005  0.82874625     0.15500
H912        H  0.02576611  0.40096120  0.92465121     0.15300
C913        C  0.39561500  0.21675839  0.62393850    -0.17600
C914        C  0.35626479  0.21672969  0.62832626    -0.19800
C915        C  0.33605934  0.18906890  0.62788925     0.20900
C916        C  0.35528983  0.16117650  0.62339234    -0.02700
C917        C  0.39498485  0.16100181  0.62193598    -0.05700
C918        C  0.41519133  0.18898356  0.62177748     0.21200
C919        C  0.41444562  0.13287064  0.62092149     0.19300
C920        C  0.39399802  0.10527514  0.61981649    -0.17200
C921        C  0.35427877  0.10565257  0.61845975    -0.19400
C922        C  0.33481125  0.13350635  0.62041335     0.20800
C923        C  0.29521895  0.13445675  0.61947213    -0.32500
C924        C  0.27644748  0.16194912  0.62558726     0.01500
C925        C  0.29679081  0.18878244  0.63119666    -0.23800
C926        C  0.45471172  0.18859843  0.62034404    -0.28400
C927        C  0.47397458  0.16072956  0.62093550     0.07200
C928        C  0.45403125  0.13296314  0.62125053    -0.27000
H929        H  0.41091029  0.23835284  0.62376882     0.11900
H930        H  0.34155555  0.23828715  0.63123987     0.13000
H931        H  0.40874455  0.08355051  0.61899672     0.12100
H932        H  0.33885740  0.08424652  0.61644336     0.11400
H933        H  0.27888779  0.11388019  0.61482520     0.16700
H934        H  0.28173965  0.20957883  0.63709693     0.12700
H935        H  0.47067110  0.20986704  0.61983426     0.15500
H936        H  0.46946660  0.11155321  0.62198818     0.15300
C937        C  0.48347293  0.17807105  0.88471454    -0.17600
C938        C  0.48428871  0.14956244  0.87110374    -0.19800
C939        C  0.45006240  0.13393562  0.86601315     0.20900
C940        C  0.41463781  0.14689033  0.87374386    -0.02700
C941        C  0.41371821  0.17676309  0.88410346    -0.05700
C942        C  0.44833815  0.19197548  0.89032834     0.21200
C943        C  0.37846032  0.19191743  0.88676714     0.19300
C944        C  0.34425189  0.17564348  0.88297236    -0.17200
C945        C  0.34523907  0.14444091  0.87624827    -0.19400
C946        C  0.38034075  0.13014736  0.87066878     0.20800
C947        C  0.38239607  0.09940918  0.86251654    -0.32500
C948        C  0.41788120  0.08720253  0.85437609     0.01500
C949        C  0.45085204  0.10506558  0.85416370    -0.23800
C950        C  0.44734160  0.22179302  0.89971763    -0.28400
C951        C  0.41341172  0.23803950  0.89744316     0.07200
C952        C  0.37875070  0.22336048  0.89129839    -0.27000
H953        H  0.51011297  0.18993364  0.88912698     0.11900
H954        H  0.51156095  0.13941156  0.86534139     0.13000
H955        H  0.31698374  0.18689240  0.88543054     0.12100
H956        H  0.31872692  0.13186818  0.87436246     0.11400
H957        H  0.35711455  0.08509050  0.86309772     0.16700
H958        H  0.47792836  0.09523637  0.84722774     0.12700
H959        H  0.47379170  0.23367801  0.90487919     0.15500
H960        H  0.35286311  0.23641437  0.88844478     0.15300
C961        C  0.01405406  0.39747382  0.61386400    -0.17600
C962        C  0.01316129  0.42619504  0.62713816    -0.19800
C963        C  0.04738252  0.44156109  0.63304657     0.20900
C964        C  0.08282520  0.42856750  0.62541498    -0.02700
C965        C  0.08378766  0.39878393  0.61467227    -0.05700
C966        C  0.04920979  0.38338599  0.60868676     0.21200
C967        C  0.11913163  0.38381017  0.61163350     0.19300
C968        C  0.15328757  0.40013478  0.61528035    -0.17200
C969        C  0.15226411  0.43106823  0.62309170    -0.19400
C970        C  0.11717360  0.44510946  0.62919722     0.20800
C971        C  0.11533200  0.47545561  0.63863158    -0.32500
C972        C  0.08572623  0.98670271  0.65038423     0.01500
C973        C  0.04666924  0.47015447  0.64579307    -0.23800
C974        C  0.05032805  0.35329183  0.59994039    -0.28400
C975        C  0.08457251  0.33733439  0.60185013     0.07200
C976        C  0.11915061  0.35239307  0.60716456    -0.27000
H977        H  0.98743514  0.38567425  0.60922148     0.11900
H978        H  0.98590707  0.43661604  0.63234668     0.13000
H979        H  0.18052147  0.38894599  0.61220009     0.12100
H980        H  0.17872444  0.44363561  0.62558564     0.11400
H981        H  0.14073980  0.48963113  0.63868420     0.16700
H982        H  0.01956911  0.48010806  0.65248150     0.12700
H983        H  0.02392001  0.34112659  0.59531820     0.15500
H984        H  0.14531714  0.33962080  0.60978030     0.15300
N985        N  0.08907284  0.80615247  0.10539855    -0.03200
C986        C  0.05925022  0.79262113  0.12076888    -0.00600
C987        C  0.05752190  0.76235561  0.11200903    -0.23500
C988        C  0.08679311  0.75766768  0.09100468    -0.23700
C989        C  0.10612155  0.78528096  0.08693182    -0.00700
H990        H  0.03804129  0.74519318  0.12062988     0.13000
H991        H  0.09328511  0.73611927  0.08000339     0.13100
N992        N  0.07367953  0.51941633  0.15350400    -0.03200
C993        C  0.04406530  0.53525544  0.14068849    -0.00600
C994        C  0.04301435  0.56367189  0.15440942    -0.23500
C995        C  0.07209568  0.56461099  0.17582369    -0.23700
C996        C  0.09158750  0.53686645  0.17494175    -0.00700
H997        H  0.02591523  0.58293894  0.14732507     0.13000
H998        H  0.07977902  0.58456116  0.18914017     0.13100
Zr999      Zr  0.19260132  0.57473910  0.23469232     2.17500
O1000       O  0.12677848  0.58269864  0.25106516    -0.51100
O1001       O  0.19706146  0.60979146  0.18842562    -0.74300
O1002       O  0.18818301  0.62621705  0.25206134    -0.81100
O1003       O  0.14799874  0.50626832  0.19504442    -0.82800
O1004       O  0.24408039  0.63566460  0.27685368    -0.78500
O1005       O  0.14132281  0.55721279  0.20358659    -0.90100
O1006       O  0.25650867  0.60488951  0.16921016    -0.76100
O1007       O  0.25691322  0.59224961  0.23506022    -0.85500
O1008       O  0.22119587  0.54106831  0.19893125    -0.85200
O1009       O  0.21476432  0.56827869  0.28712570    -0.72000
O1010       O  0.18435991  0.52366086  0.25558915    -0.84100
Zr1011     Zr  0.30032129  0.50071703  0.26826122     2.26400
Zr1012     Zr  0.28044915  0.58523813  0.28647802     2.06300
Zr1013     Zr  0.21433531  0.99007622  0.21753844     2.10000
Zr1014     Zr  0.28490379  0.56004627  0.19785357     1.78800
O1015       O  0.16640555  0.94965400  0.21994781    -0.92900
O1016       O  0.33708196  0.59690903  0.19303102    -0.40700
O1017       O  0.27745365  0.50736666  0.21639627    -0.77400
O1018       O  0.30978162  0.55246157  0.24915575    -0.96100
O1019       O  0.27307070  0.53376499  0.30547246    -0.89400
O1020       O  0.23847331  0.98379140  0.26888465    -0.92200
C1021       C  0.22328294  0.61794586  0.16874986     1.01600
C1022       C  0.12935821  0.53214972  0.19211952     1.14500
C1023       C  0.21130235  0.64441988  0.26523047     1.05300
O1024       O  0.32924289  0.62501887  0.28568346    -0.94400
O1025       O  0.34366805  0.56536620  0.31060322    -0.90100
O1026       O  0.35048433  0.51454993  0.30125734    -0.83200
C1027       C  0.36208798  0.53922506  0.31343150     1.11900
O1028       O  0.14917780  0.53257486  0.33034384    -0.96300
Zr1029     Zr  0.20903411  0.51629083  0.30710754     1.88900
O1030       O  0.29822105  0.96431999  0.31221208    -0.73000
O1031       O  0.26270480  0.60158958  0.33783509    -0.52200
O1032       O  0.21653801  0.53955047  0.35736183    -0.96900
O1033       O  0.16190192  0.97640308  0.30851877    -0.54100
O1034       O  0.24126482  0.97146928  0.33565875    -0.73500
C1035       C  0.27361680  0.95701946  0.33353056     0.98800
O1036       O  0.36183815  0.49279877  0.24308956    -0.62300
O1037       O  0.23303743  0.97572916  0.16575673    -0.57100
O1038       O  0.31244242  0.95322541  0.24320673    -0.93800
O1039       O  0.25209717  0.94012479  0.22989791    -0.92200
O1040       O  0.27439699  0.54682393  0.14441170    -0.92600
O1041       O  0.34429426  0.53783965  0.17922761    -0.91400
C1042       C  0.28708023  0.93305953  0.23840993     1.17700
H1043       H  0.20970608  0.54326101  0.17899286     0.33600
H1044       H  0.33683790  0.55663889  0.24878851     0.44500
H1045       H  0.23589375  0.96305325  0.27625690     0.38000
H1046       H  0.20024076  0.58173960  0.30027044     0.34500
H1047       H  0.32529681  0.61705870  0.19704351     0.26300
H1048       H  0.26947542  0.62359110  0.33844979     0.32200
H1049       H  0.22874952  0.52364414  0.37003961     0.38100
H1050       H  0.27836409  0.52447714  0.14322879     0.32600
H1051       H  0.22145703  0.99151352  0.15252714     0.31500
H1052       H  0.17872686  0.93174381  0.21024745     0.33100
H1053       H  0.14110920  0.98389590  0.29527842     0.32100
H1054       H  0.33773419  0.51650693  0.17370046     0.36100
H1055       H  0.37671758  0.47981158  0.25718109     0.28800
H1056       H  0.12023277  0.60388823  0.24517463     0.33100
H1057       H  0.13339978  0.53948009  0.31294523     0.35900
H1058       H  0.25597266  0.47419046  0.16558064     0.28500
H1059       H  0.35646454  0.47948546  0.22528162     0.41400
H1060       H  0.33369137  0.62911545  0.26368265     0.31500
H1061       H  0.35377579  0.59337705  0.21086370     0.39100
H1062       H  0.15146462  0.97742690  0.32958499     0.30900
H1063       H  0.28147091  0.59159265  0.35135477     0.31000
H1064       H  0.12756050  0.58270323  0.27365732     0.31300
N1065       N  0.42602976  0.76626269  0.40269679    -0.03200
C1066       C  0.40885028  0.78425624  0.42404061    -0.00600
C1067       C  0.42866270  0.81199520  0.42403021    -0.23500
C1068       C  0.45726471  0.81059484  0.40205081    -0.23700
C1069       C  0.45535615  0.78193522  0.38898895    -0.00700
H1070       H  0.42152519  0.83220499  0.43709592     0.13000
H1071       H  0.47467272  0.82960310  0.39430776     0.13100
N1072       N  0.42017241  0.55317081  0.34864953    -0.03200
C1073       C  0.44933576  0.53804783  0.36276909    -0.00600
C1074       C  0.45081691  0.01163956  0.34911538    -0.23500
C1075       C  0.42073808  0.00991039  0.32868262    -0.25700
C1076       C  0.39906407  0.53377246  0.33141686    -0.00700
H1077       H  0.46806830  0.99264054  0.35667798     0.13000
H1078       H  0.41217743  0.98940665  0.31660695     0.13100
N1079       N  0.23629771  0.66187163  0.12600738    -0.03200
C1080       C  0.21306841  0.64301527  0.14384724    -0.00600
C1081       C  0.17595908  0.65032879  0.13588551    -0.23500
C1082       C  0.17698143  0.67306829  0.11329585    -0.23700
C1083       C  0.21474425  0.68068228  0.10716960    -0.00700
H1084       H  0.15045907  0.63993730  0.14535377     0.13000
H1085       H  0.15234758  0.68323592  0.10257072     0.13100
N1086       N  0.01590820  0.66357480  0.12421003    -0.03200
C1087       C  0.03776142  0.68106304  0.14416484    -0.00600
C1088       C  0.07546453  0.67421771  0.13726723    -0.23500
C1089       C  0.07612040  0.65240260  0.11376674    -0.23700
C1090       C  0.03891084  0.64587154  0.10523351    -0.00700
H1091       H  0.10024560  0.68386610  0.14841570     0.13000
H1092       H  0.10142601  0.64254743  0.10360925     0.13100
Zr1093     Zr  0.44433541  0.80035178  0.28732135     2.17500
O1094       O  0.38315871  0.77662612  0.30003977    -0.51100
O1095       O  0.44783877  0.84587214  0.32326644    -0.74300
O1096       O  0.44033988  0.78098122  0.33767347    -0.81100
O1097       O  0.40130020  0.84203723  0.22128249    -0.82800
O1098       O  0.50198139  0.76873970  0.34774353    -0.78500
O1099       O  0.39301857  0.83284353  0.27198301    -0.90100
O1100       O  0.00438502  0.87253167  0.31527279    -0.76100
O1101       O  0.50856636  0.80467647  0.30345096    -0.85500
O1102       O  0.47132864  0.83682147  0.25332317    -0.85200
O1103       O  0.47166998  0.74944992  0.28177111    -0.72000
O1104       O  0.43677011  0.77809853  0.23674873    -0.84100
Zr1105     Zr  0.05500148  0.77161941  0.21279586     2.26400
Zr1106     Zr  0.53688600  0.75538495  0.29750064     2.06300
Zr1107     Zr  0.46338045  0.81587467  0.20266821     2.10000
Zr1108     Zr  0.03488560  0.84400747  0.27089147     1.78800
O1109       O  0.41106535  0.80926213  0.16679056    -0.92900
O1110       O  0.08482070  0.84807470  0.30931872    -0.40700
O1111       O  0.02962315  0.82314400  0.21924418    -0.77400
O1112       O  0.06240877  0.79346185  0.26379676    -0.96100
O1113       O  0.02633005  0.73610404  0.24714288    -0.89400
O1114       O  0.99055378  0.76876122  0.19537590    -0.92200
C1115       C  0.47258721  0.86725575  0.32971624     1.01600
C1116       C  0.38253918  0.84561727  0.24716948     1.14500
C1117       C  0.46729808  0.77621014  0.35630590     1.05300
O1118       O  0.08643449  0.77067446  0.33053708    -0.94400
O1119       O  0.09305027  0.73037468  0.28040715    -0.90100
O1120       O  0.11072951  0.74759764  0.23351584    -0.83200
C1121       C  0.11697696  0.73164651  0.25738815     1.11900
O1122       O  0.41496120  0.70147966  0.25806695    -0.96300
Zr1123     Zr  0.46605074  0.72778001  0.23045902     1.88900
O1124       O  0.04969149  0.72629157  0.17688700    -0.73000
O1125       O  0.53053818  0.70439271  0.31904017    -0.52200
O1126       O  0.48390631  0.67595125  0.24472783    -0.96900
O1127       O  0.41117921  0.72138841  0.19713020    -0.54100
O1128       O  0.49390594  0.69936946  0.18479924    -0.73500
C1129       C  0.02558852  0.70465109  0.16995621     0.98800
O1130       O  0.11895710  0.77285224  0.19035100    -0.62300
O1131       O  0.97985053  0.86946494  0.17878073    -0.57100
O1132       O  0.06151196  0.80843188  0.17245785    -0.93800
O1133       O  0.00331785  0.80827671  0.15270069    -0.92200
O1134       O  0.02537555  0.89676966  0.25489355    -0.92600
O1135       O  0.09287321  0.86435003  0.24747775    -0.91400
C1136       C  0.04008579  0.80514024  0.14948040     1.17700
H1137       H  0.45912888  0.85649080  0.25530184     0.33600
H1138       H  0.08932462  0.79466584  0.26837039     0.44500
H1139       H  0.98821208  0.76109392  0.17476209     0.38000
H1140       H  0.45914983  0.73586129  0.29605477     0.34500
H1141       H  0.07459896  0.83699412  0.32733752     0.26300
H1142       H  0.54468196  0.69108181  0.30463739     0.32200
H1143       H  0.50090324  0.67836317  0.26257772     0.38100
H1144       H  0.01449095  0.89525424  0.23409228     0.32600
H1145       H  0.97141044  0.86757403  0.15728608     0.31500
H1146       H  0.41033237  0.82870642  0.15521996     0.33100
H1147       H  0.38938015  0.73047344  0.20832862     0.32100
H1148       H  0.10251586  0.84744504  0.23451777     0.36100
H1149       H  0.11571043  0.76748828  0.16850070     0.28800
H1150       H  0.36875282  0.77609647  0.28061340     0.33100
H1151       H  0.39949269  0.71803616  0.26725051     0.35900
H1152       H  0.96150848  0.88372078  0.18837484     0.28500
H1153       H  0.12724912  0.79452929  0.19043488     0.41400
H1154       H  0.07503723  0.78144479  0.34825070     0.31500
H1155       H  0.10614136  0.83527000  0.30186159     0.39100
H1156       H  0.40593297  0.69911096  0.19703251     0.30900
H1157       H  0.54699005  0.70512519  0.33736021     0.31000
H1158       H  0.36956333  0.79171578  0.31295087     0.31300
N1159       N  0.26250950  0.91157222  0.37494556    -0.03200
C1160       C  0.28519092  0.89242244  0.39254392    -0.00600
C1161       C  0.32260120  0.90028814  0.38554825    -0.23500
C1162       C  0.32246895  0.92354278  0.36355356    -0.23700
C1163       C  0.28492572  0.93099429  0.35702141    -0.00700
H1164       H  0.34773352  0.88984800  0.39520374     0.13000
H1165       H  0.34754406  0.93418074  0.35360557     0.13100
N1166       N  0.48529810  0.91007775  0.37319812    -0.03200
C1167       C  0.46210505  0.89160846  0.35514269    -0.00600
C1168       C  0.42491441  0.89828911  0.36372882    -0.23500
C1169       C  0.42572466  0.92097452  0.38634775    -0.23700
C1170       C  0.46346394  0.92829413  0.39262927    -0.00700
H1171       H  0.39947898  0.88797062  0.35423961     0.13000
H1172       H  0.40099032  0.93090242  0.39735480     0.13100
Zr1173     Zr  0.44381281  0.52221987  0.46141472     2.17500
O1174       O  0.37800219  0.53673373  0.45069400    -0.51100
O1175       O  0.45091249  0.97431571  0.42436263    -0.74300
O1176       O  0.43883170  0.54896866  0.41421714    -0.81100
O1177       O  0.40410090  0.97926117  0.03073362    -0.82800
O1178       O  0.50065203  0.55137332  0.40051923    -0.78500
O1179       O  0.39851319  0.98524608  0.47738485    -0.90100
O1180       O  0.00558254  0.95321450  0.43489012    -0.76100
O1181       O  0.50743796  0.51776585  0.44361941    -0.85500
O1182       O  0.47738945  0.98330629  0.49307753    -0.85200
O1183       O  0.47057677  0.57338575  0.46739872    -0.72000
O1184       O  0.43819525  0.54260694  0.01327620    -0.84100
Zr1185     Zr  0.05595938  0.55479177  0.03702185     2.26400
Zr1186     Zr  0.53537192  0.56777961  0.44982580     2.06300
Zr1187     Zr  0.46805770  0.00368374  0.04811734     2.10000
Zr1188     Zr  0.03504669  0.48370936  0.47922002     1.78800
O1189       O  0.42030531  0.00573430  0.08871603    -0.92900
O1190       O  0.08620245  0.47859539  0.44145628    -0.40700
O1191       O  0.02891727  0.50375488  0.03114122    -0.77400
O1192       O  0.06295666  0.53420330  0.48569949    -0.96100
O1193       O  0.03118536  0.59099139  0.00188344    -0.89400
O1194       O  0.99103425  0.55888886  0.05275507    -0.92200
C1195       C  0.47545775  0.95312917  0.41726970     1.01600
C1196       C  0.38557095  0.97536843  0.00486001     1.14500
C1197       C  0.46453632  0.54741427  0.39385627     1.05300
O1198       O  0.08764534  0.55664934  0.41575128    -0.94400
O1199       O  0.09852151  0.59444906  0.46920329    -0.90100
O1200       O  0.11189792  0.58219673  0.02082083    -0.83200
C1201       C  0.11975730  0.59565234  0.49385525     1.11900
O1202       O  0.41154677  0.61864923  0.99450015    -0.96300
Zr1203     Zr  0.46566469  0.59382489  0.01887971     1.88900
O1204       O  0.05299917  0.60140410  0.07172154    -0.73000
O1205       O  0.52214218  0.61804771  0.42872664    -0.52200
O1206       O  0.48196344  0.64452508  0.99968186    -0.96900
O1207       O  0.41382780  0.60099702  0.05535869    -0.54100
O1208       O  0.49459616  0.62296433  0.06340867    -0.73500
C1209       C  0.02831233  0.62257959  0.07879671     0.98800
O1210       O  0.11666042  0.52990294  0.04834445    -0.62300
O1211       O  0.97163815  0.95921032  0.06351350    -0.57100
O1212       O  0.05696122  0.54063696  0.08928037    -0.93800
O1213       O  0.99850033  0.51959294  0.09914074    -0.92200
O1214       O  0.02369830  0.92977340  0.50104122    -0.92600
O1215       O  0.09322943  0.46172204  0.49991537    -0.91400
C1216       C  0.03174637  0.53076511  0.10777843     1.17700
H1217       H  0.46626928  0.96319498  0.49103689     0.33600
H1218       H  0.09005544  0.53283438  0.48179028     0.44500
H1219       H  0.98811245  0.56686345  0.07322855     0.38000
H1220       H  0.45751461  0.58744233  0.45397649     0.34500
H1221       H  0.07344662  0.47987558  0.42134457     0.26300
H1222       H  0.54366307  0.62217766  0.41454040     0.32200
H1223       H  0.47391096  0.65877542  0.01607150     0.38100
H1224       H  0.02638139  0.91580937  0.48334202     0.32600
H1225       H  0.96548625  0.94627843  0.04559396     0.31500
H1226       H  0.42303899  0.98604586  0.09967126     0.33100
H1227       H  0.39071942  0.59255167  0.04546777     0.32100
H1228       H  0.11022065  0.47944850  0.50374063     0.36100
H1229       H  0.11209206  0.51592111  0.06578269     0.28800
H1230       H  0.37210678  0.52807270  0.43030574     0.33100
H1231       H  0.39767909  0.60196976  0.98397286     0.35900
H1232       H  0.99974419  0.95797510  0.06524238     0.28500
H1233       H  0.11039624  0.51291945  0.55430745     0.41400
H1234       H  0.07509385  0.54599234  0.39851230     0.31500
H1235       H  0.10150171  0.49760635  0.44274398     0.39100
H1236       H  0.40971381  0.62338679  0.05597201     0.30900
H1237       H  0.49991584  0.61454287  0.41529056     0.31000
H1238       H  0.37853105  0.55916675  0.44763789     0.31300
N1239       N  0.16373583  0.68858596  0.27284945    -0.03200
C1240       C  0.19858460  0.67758502  0.26322633    -0.00600
C1241       C  0.21079025  0.69624104  0.23946040    -0.23500
C1242       C  0.18345035  0.71881621  0.23526335    -0.23700
C1243       C  0.15447014  0.71385692  0.25644060    -0.00700
H1244       H  0.23511271  0.69221807  0.22466462     0.13000
H1245       H  0.18396279  0.73611989  0.21757342     0.13100
N1246       N  0.17054373  0.63497143  0.47707991    -0.03200
C1247       C  0.16025213  0.61092874  0.99613319    -0.00600
C1248       C  0.18924865  0.60577984  0.01700848    -0.23500
C1249       C  0.21733860  0.62799945  0.01215253    -0.23700
C1250       C  0.20535600  0.64660670  0.98841132    -0.00700
H1251       H  0.18942129  0.58854628  0.03476195     0.13000
H1252       H  0.24201785  0.63183802  0.02647158     0.13100
Zr1253     Zr  0.19829129  0.74883028  0.01681766     2.17500
O1254       O  0.13236105  0.74044302  0.00147612    -0.51100
O1255       O  0.20174426  0.71324265  0.06214156    -0.74300
O1256       O  0.19390345  0.69797168  0.99781885    -0.81100
O1257       O  0.15916063  0.81487931  0.06163854    -0.82800
O1258       O  0.25032194  0.68776316  0.47326762    -0.78500
O1259       O  0.14913529  0.76454287  0.05151255    -0.90100
O1260       O  0.26003301  0.71937090  0.08300873    -0.76100
O1261       O  0.26262889  0.73159176  0.01679696    -0.85500
O1262       O  0.22762881  0.78206046  0.05252984    -0.85200
O1263       O  0.22082614  0.75464391  0.46456593    -0.72000
O1264       O  0.18953265  0.79984031  0.99610695    -0.84100
Zr1265     Zr  0.30692539  0.82335349  0.48211315     2.26400
Zr1266     Zr  0.28657496  0.73820994  0.46549662     2.06300
Zr1267     Zr  0.21894421  0.83330511  0.03292609     2.10000
Zr1268     Zr  0.29110149  0.76366454  0.05378592     1.78800
O1269       O  0.16667623  0.86927547  0.02700673    -0.92900
O1270       O  0.34219285  0.72589923  0.05421168    -0.40700
O1271       O  0.28426273  0.81597426  0.03442339    -0.77400
O1272       O  0.31625313  0.77186081  0.50196615    -0.96100
O1273       O  0.27872182  0.78962039  0.44608821    -0.89400
O1274       O  0.24212737  0.83961478  0.48105772    -0.92200
C1275       C  0.22686549  0.70572464  0.08258215     1.01600
C1276       C  0.14014554  0.78924883  0.06527220     1.14500
C1277       C  0.21724642  0.67906771  0.48446810     1.05300
O1278       O  0.33508962  0.69916106  0.47255678    -0.94400
O1279       O  0.35061574  0.75485791  0.44209620    -0.90100
O1280       O  0.36148968  0.80411057  0.45572139    -0.83200
C1281       C  0.37141059  0.77981135  0.44177152     1.11900
O1282       O  0.15850346  0.78272786  0.42153308    -0.96300
Zr1283     Zr  0.21438175  0.80656901  0.44457405     1.88900
O1284       O  0.29926554  0.85941458  0.43707838    -0.73000
O1285       O  0.27522751  0.72244519  0.41287953    -0.52200
O1286       O  0.22355408  0.78989368  0.39186630    -0.96900
O1287       O  0.16136909  0.84238978  0.44461983    -0.54100
O1288       O  0.24223180  0.85127367  0.41450781    -0.73500
C1289       C  0.27436347  0.86623413  0.41611201     0.98800
O1290       O  0.37113295  0.84529551  0.48386834    -0.62300
O1291       O  0.23371053  0.85411569  0.08309656    -0.57100
O1292       O  0.31398196  0.86410158  0.51840405    -0.93800
O1293       O  0.25299485  0.88383534  0.02034629    -0.92200
O1294       O  0.28508236  0.78159449  0.10641697    -0.92600
O1295       O  0.34917767  0.78373728  0.07698558    -0.91400
C1296       C  0.28845416  0.89049630  0.01370363     1.17700
H1297       H  0.21648738  0.77985792  0.07262998     0.33600
H1298       H  0.34338188  0.76790260  0.50239464     0.44500
H1299       H  0.23909920  0.86033069  0.47392004     0.38000
H1300       H  0.20653753  0.74103707  0.45151042     0.34500
H1301       H  0.33363662  0.70975912  0.03988661     0.26300
H1302       H  0.24798236  0.72682301  0.40906291     0.32200
H1303       H  0.25144449  0.78721177  0.38945688     0.38100
H1304       H  0.26024020  0.77364641  0.11387551     0.32600
H1305       H  0.25771910  0.84397110  0.08913276     0.31500
H1306       H  0.16616066  0.87374393  0.00481090     0.33100
H1307       H  0.14186324  0.83337408  0.45841972     0.32100
H1308       H  0.34921071  0.80582810  0.07203417     0.36100
H1309       H  0.37662289  0.85933727  0.98434263     0.28800
H1310       H  0.12583915  0.71938770  0.00804387     0.33100
H1311       H  0.14087106  0.77899108  0.43890237     0.35900
H1312       H  0.24125487  0.87552366  0.07892437     0.28500
H1313       H  0.37928579  0.84453757  0.50551779     0.41400
H1314       H  0.32439492  0.68524580  0.48830803     0.31500
H1315       H  0.36419053  0.73565497  0.04371958     0.39100
H1316       H  0.15012788  0.84103010  0.42391904     0.30900
H1317       H  0.28922639  0.73768615  0.40033767     0.31000
H1318       H  0.13312792  0.73974668  0.97888295     0.31300
N1319       N  0.32940382  0.88552855  0.23226708    -0.03200
C1320       C  0.30063623  0.90100964  0.24706317    -0.00600
C1321       C  0.30024912  0.89097149  0.27702281    -0.23500
C1322       C  0.32876037  0.86915437  0.27996438    -0.23700
C1323       C  0.34708627  0.86592936  0.25178012    -0.00700
H1324       H  0.28342492  0.90036836  0.29554116     0.13000
H1325       H  0.33639700  0.85792313  0.30111461     0.13100
N1326       N  0.33128307  0.93706859  0.01959176    -0.03200
C1327       C  0.30870215  0.91612615  0.50502574    -0.00600
C1328       C  0.30922910  0.92366468  0.47438209    -0.23500
C1329       C  0.33869270  0.94451666  0.46993493    -0.23700
C1330       C  0.35602183  0.94979663  0.49805009    -0.00700
H1331       H  0.29147968  0.91398798  0.45674729     0.13000
H1332       H  0.34698619  0.95427649  0.44812913     0.13100
C1333       C  0.26689557  0.92377874  0.11337940    -0.17600
C1334       C  0.26587723  0.90896686  0.14133805    -0.19800
C1335       C  0.30003743  0.89982461  0.15482858     0.20900
C1336       C  0.33542714  0.90514120  0.14039155    -0.02700
C1337       C  0.33609429  0.91732096  0.11120427    -0.05700
C1338       C  0.30169013  0.92720456  0.09802599     0.21200
C1339       C  0.37090762  0.91901616  0.09493550     0.19300
C1340       C  0.40516260  0.91112412  0.10924084    -0.17200
C1341       C  0.40484117  0.90227181  0.13988453    -0.19400
C1342       C  0.37002750  0.89903080  0.15547498     0.20800
C1343       C  0.36874485  0.89168172  0.18636334    -0.32500
C1344       C  0.33330724  0.88631496  0.20025231     0.01500
C1345       C  0.29957827  0.88735370  0.18353383    -0.23800
C1346       C  0.30232916  0.93847327  0.06879633    -0.28400
C1347       C  0.33553621  0.93599543  0.05140098     0.07200
C1348       C  0.37011856  0.92714769  0.06427954    -0.27000
H1349       H  0.24049530  0.93124678  0.10307512     0.11900
H1350       H  0.23872224  0.90565236  0.15287533     0.13000
H1351       H  0.43203987  0.91245408  0.09699169     0.12100
H1352       H  0.43152482  0.89756415  0.15120244     0.11400
H1353       H  0.39463767  0.89219830  0.19972021     0.16700
H1354       H  0.27244735  0.88261789  0.19467135     0.12700
H1355       H  0.27597022  0.94564711  0.05806959     0.15500
H1356       H  0.39543016  0.92489984  0.05015485     0.15300
C1357       C  0.12441105  0.70908622  0.40548714    -0.17600
C1358       C  0.12545892  0.71755413  0.37489792    -0.19800
C1359       C  0.12934744  0.69510715  0.35225457     0.20900
C1360       C  0.12792292  0.66387948  0.35989394    -0.02700
C1361       C  0.13010592  0.65555704  0.39050938    -0.05700
C1362       C  0.12993137  0.67847728  0.41331507     0.21200
C1363       C  0.13831712  0.62495724  0.39790935     0.19300
C1364       C  0.13776730  0.60221459  0.37538126    -0.17200
C1365       C  0.13278852  0.61031113  0.34495073    -0.19400
C1366       C  0.13065218  0.64120802  0.33700021     0.20800
C1367       C  0.13668314  0.65003589  0.30694517    -0.32500
C1368       C  0.14512375  0.68048707  0.30054424     0.01500
C1369       C  0.14005288  0.70310088  0.32287815    -0.23800
C1370       C  0.14019639  0.67091327  0.44286149    -0.28400
C1371       C  0.15353846  0.64168930  0.44880854     0.07200
C1372       C  0.15125071  0.61844639  0.42694502    -0.27000
H1373       H  0.12349745  0.72664846  0.42290617     0.11900
H1374       H  0.12616064  0.74161025  0.36920952     0.13000
H1375       H  0.14373831  0.57859511  0.38099064     0.12100
H1376       H  0.13475260  0.59286697  0.32752364     0.11400
H1377       H  0.13898117  0.63302435  0.28933215     0.16700
H1378       H  0.14731681  0.72670331  0.31788355     0.12700
H1379       H  0.14080998  0.68811154  0.46050583     0.15500
H1380       H  0.16118493  0.59564256  0.43241931     0.15300
C1381       C  0.10373667  0.91591490  0.31907173    -0.17600
C1382       C  0.14326002  0.91243480  0.31895993    -0.19800
C1383       C  0.16304713  0.91081884  0.34669674     0.20900
C1384       C  0.14288244  0.91026925  0.37468391    -0.02700
C1385       C  0.10308878  0.91077053  0.37457467    -0.05700
C1386       C  0.08355394  0.91510666  0.34679844     0.21200
C1387       C  0.08282988  0.90720820  0.40228295     0.19300
C1388       C  0.10240895  0.90514386  0.43003924    -0.17200
C1389       C  0.14206408  0.90751690  0.43038620    -0.19400
C1390       C  0.16245747  0.90952895  0.40279482     0.20800
C1391       C  0.20209315  0.91078058  0.40269876    -0.32500
C1392       C  0.22207453  0.91097256  0.37491062     0.01500
C1393       C  0.20267105  0.91035691  0.34704237    -0.23800
C1394       C  0.04413019  0.91833143  0.34743516    -0.28400
C1395       C  0.02405887  0.91281015  0.37459820     0.07200
C1396       C  0.04328497  0.90613386  0.40164655    -0.27000
H1397       H  0.08892171  0.91856547  0.29754022     0.11900
H1398       H  0.15850050  0.91258114  0.29732577     0.13000
H1399       H  0.08703467  0.90272874  0.45146957     0.12100
H1400       H  0.15682355  0.90689123  0.45210347     0.11400
H1401       H  0.21754241  0.91141047  0.42411642     0.16700
H1402       H  0.21857763  0.91004321  0.32572309     0.12700
H1403       H  0.02886171  0.92425024  0.32678391     0.15500
H1404       H  0.02728159  0.90082233  0.42224834     0.15300
C1405       C  0.39553507  0.71710399  0.12940925    -0.17600
C1406       C  0.35594338  0.71689966  0.13230313    -0.19800
C1407       C  0.33586137  0.68921564  0.13052728     0.20900
C1408       C  0.35554801  0.66143903  0.12634425    -0.02700
C1409       C  0.39532575  0.66143492  0.12570017    -0.05700
C1410       C  0.41534054  0.68947311  0.12650708     0.21200
C1411       C  0.41504880  0.63341821  0.12398388     0.19300
C1412       C  0.39481611  0.60576856  0.12208260    -0.17200
C1413       C  0.35513532  0.60599379  0.12031778    -0.19400
C1414       C  0.33543403  0.63371496  0.12246352     0.20800
C1415       C  0.29592416  0.63437813  0.12075725    -0.32500
C1416       C  0.27655910  0.66162361  0.12654751     0.01500
C1417       C  0.29634502  0.68872879  0.13241809    -0.23800
C1418       C  0.45486828  0.68929878  0.12453322    -0.28400
C1419       C  0.47444139  0.66151551  0.12366020     0.07200
C1420       C  0.45468647  0.63366943  0.12380378    -0.27000
H1421       H  0.41072231  0.73873050  0.13021874     0.11900
H1422       H  0.34100472  0.73835843  0.13521159     0.13000
H1423       H  0.40972510  0.58413921  0.12079842     0.12100
H1424       H  0.33986301  0.58454892  0.11776714     0.11400
H1425       H  0.28003975  0.61373091  0.11548334     0.16700
H1426       H  0.28074875  0.70949809  0.13745786     0.12700
H1427       H  0.47059963  0.71068777  0.12414226     0.15500
H1428       H  0.47029494  0.61232553  0.12358223     0.15300
C1429       C  0.48886847  0.67379683  0.37665646    -0.17600
C1430       C  0.48746403  0.64576336  0.36188055    -0.19800
C1431       C  0.45222232  0.63117371  0.35798453     0.20900
C1432       C  0.41807982  0.64508732  0.36774489    -0.02700
C1433       C  0.41926806  0.67451421  0.37936541    -0.05700
C1434       C  0.45485582  0.68843847  0.38467685     0.21200
C1435       C  0.38493269  0.69007463  0.38553061     0.19300
C1436       C  0.34991266  0.67470899  0.38323454    -0.17200
C1437       C  0.34911314  0.64390130  0.37521724    -0.19400
C1438       C  0.38298923  0.62920918  0.36686494     0.20800
C1439       C  0.38305641  0.59849421  0.35926497    -0.32500
C1440       C  0.41701860  0.58506946  0.34960306     0.01500
C1441       C  0.45073004  0.60190915  0.34668404    -0.23800
C1442       C  0.45570970  0.71734770  0.39688856    -0.28400
C1443       C  0.42205978  0.73434514  0.39892633     0.07200
C1444       C  0.38662674  0.72091665  0.39297139    -0.27000
H1445       H  0.51630850  0.68435194  0.38111661     0.11900
H1446       H  0.51387865  0.63479200  0.35510174     0.13000
H1447       H  0.32342548  0.68617950  0.38841934     0.12100
H1448       H  0.32212438  0.63179601  0.37502155     0.11400
H1449       H  0.35761634  0.58473721  0.36262956     0.16700
H1450       H  0.47677076  0.59071595  0.33927735     0.12700
H1451       H  0.48300754  0.72800726  0.40182998     0.15500
H1452       H  0.36096485  0.73448811  0.39262373     0.15300
C1453       C  0.01917159  0.89728124  0.10666774    -0.17600
C1454       C  0.01646475  0.92610642  0.11953148    -0.19800
C1455       C  0.04972919  0.94233546  0.12659380     0.20900
C1456       C  0.08603078  0.93009552  0.12055224    -0.02700
C1457       C  0.08869830  0.90012234  0.11045787    -0.05700
C1458       C  0.05507155  0.88388514  0.10325628     0.21200
C1459       C  0.12454284  0.88558152  0.11013731     0.19300
C1460       C  0.15785011  0.90258546  0.11551643    -0.17200
C1461       C  0.15536425  0.93367129  0.12252118    -0.19400
C1462       C  0.11950230  0.94722603  0.12624932     0.20800
C1463       C  0.11611711  0.97735324  0.13614429    -0.32500
C1464       C  0.07876387  0.48805552  0.14752480     0.01500
C1465       C  0.04727456  0.97060720  0.13993154    -0.23800
C1466       C  0.05757006  0.85343777  0.09609633    -0.28400
C1467       C  0.09157772  0.83805185  0.10151168     0.07200
C1468       C  0.12553977  0.85390275  0.10731955    -0.27000
H1469       H  0.99326606  0.88470317  0.10148027     0.11900
H1470       H  0.98854179  0.93577155  0.12386865     0.13000
H1471       H  0.18552363  0.89173118  0.11492060     0.12100
H1472       H  0.18116839  0.94661909  0.12682381     0.11400
H1473       H  0.14108840  0.99188828  0.13781947     0.16700
H1474       H  0.01944367  0.97962144  0.14598106     0.12700
H1475       H  0.03185599  0.84059975  0.09082581     0.15500
H1476       H  0.15171440  0.84159386  0.11168187     0.15300
N1477       N  0.08258414  0.80561852  0.59992553    -0.03200
C1478       C  0.05385620  0.79131753  0.61577372    -0.00600
C1479       C  0.05334616  0.76105623  0.60686656    -0.23500
C1480       C  0.08233995  0.75728542  0.58540866    -0.23700
C1481       C  0.10069430  0.78535802  0.58138697    -0.00700
H1482       H  0.03583740  0.74308947  0.61648525     0.13000
H1483       H  0.09020774  0.73576313  0.57494234     0.13100
N1484       N  0.07538166  0.51917504  0.65202463    -0.03200
C1485       C  0.04591503  0.53513103  0.63914972    -0.00600
C1486       C  0.04637986  0.56411240  0.65169471    -0.23500
C1487       C  0.07613602  0.56532238  0.67238316    -0.23700
C1488       C  0.09437564  0.53707134  0.67243242    -0.00700
H1489       H  0.02986444  0.58349969  0.64406485     0.13000
H1490       H  0.08488203  0.58561911  0.68472329     0.13100
Zr1491     Zr  0.19278841  0.57378605  0.73506965     2.17500
O1492       O  0.12638946  0.58207906  0.74977486    -0.51100
O1493       O  0.19919986  0.61102048  0.69065985    -0.74300
O1494       O  0.18602070  0.62376130  0.75619104    -0.81100
O1495       O  0.14904346  0.50554214  0.69390455    -0.82800
O1496       O  0.24461751  0.63446925  0.77564428    -0.78500
O1497       O  0.14335404  0.55663662  0.70208914    -0.90100
O1498       O  0.25768657  0.60457442  0.67000003    -0.76100
O1499       O  0.25705351  0.59089954  0.73348400    -0.85500
O1500       O  0.22050240  0.53972803  0.69906801    -0.85200
O1501       O  0.21584521  0.56741095  0.78713800    -0.72000
O1502       O  0.18412895  0.52265383  0.75605482    -0.84100
Zr1503     Zr  0.30092295  0.49961651  0.76822243     2.26400
Zr1504     Zr  0.28135861  0.58454343  0.78458271     2.06300
Zr1505     Zr  0.21725658  0.99118128  0.71938829     2.10000
Zr1506     Zr  0.28438013  0.55780171  0.69664013     1.78800
O1507       O  0.16883845  0.95164000  0.72641106    -0.92900
O1508       O  0.34007115  0.59084729  0.69021557    -0.40700
O1509       O  0.27728283  0.50583684  0.71662998    -0.77400
O1510       O  0.31010845  0.55075970  0.74772841    -0.96100
O1511       O  0.27384443  0.53336127  0.80471031    -0.89400
O1512       O  0.24022900  0.98559744  0.77075218    -0.92200
C1513       C  0.22528820  0.61890582  0.67073028     1.01600
C1514       C  0.13127210  0.53172600  0.69041374     1.14500
C1515       C  0.21045560  0.64259033  0.76667374     1.05300
O1516       O  0.33023415  0.62346415  0.77660897    -0.94400
O1517       O  0.34490406  0.56730611  0.80824580    -0.90100
O1518       O  0.35275252  0.51679687  0.79814568    -0.83200
C1519       C  0.36395759  0.54161269  0.81037427     1.11900
O1520       O  0.15288951  0.53593612  0.83182543    -0.96300
Zr1521     Zr  0.20984600  0.51543851  0.80728708     1.88900
O1522       O  0.29967346  0.96675310  0.81521099    -0.73000
O1523       O  0.26934326  0.60306926  0.83630811    -0.52200
O1524       O  0.22022061  0.53135215  0.86001015    -0.96900
O1525       O  0.16173659  0.97957680  0.80693623    -0.54100
O1526       O  0.24184927  0.97348886  0.83733428    -0.73500
C1527       C  0.27439950  0.95924659  0.83585609     0.98800
O1528       O  0.36074449  0.48536675  0.74331710    -0.62300
O1529       O  0.23119014  0.97501067  0.66729561    -0.57100
O1530       O  0.30905580  0.95013206  0.75588012    -0.93800
O1531       O  0.25380390  0.94045196  0.73020305    -0.92200
O1532       O  0.27057308  0.53976531  0.64502897    -0.92600
O1533       O  0.34004183  0.53421001  0.67302019    -0.91400
C1534       C  0.28562115  0.93164948  0.74366311     1.17700
H1535       H  0.20880768  0.54180492  0.67921622     0.33600
H1536       H  0.33719062  0.55492055  0.74702093     0.44500
H1537       H  0.23733894  0.96481928  0.77793422     0.38000
H1538       H  0.20168858  0.58099004  0.80048530     0.34500
H1539       H  0.33141648  0.61134589  0.69677238     0.26300
H1540       H  0.24978347  0.58899231  0.84475932     0.32200
H1541       H  0.24760637  0.52747211  0.86387013     0.38100
H1542       H  0.25603820  0.55638780  0.63515624     0.32600
H1543       H  0.22076421  0.99145144  0.65423931     0.31500
H1544       H  0.15687361  0.94910867  0.70609716     0.33100
H1545       H  0.15407131  0.97794614  0.78524025     0.32100
H1546       H  0.35137958  0.52165686  0.68944416     0.36100
H1547       H  0.37643130  0.50425290  0.74289139     0.28800
H1548       H  0.11989565  0.60297309  0.74286529     0.33100
H1549       H  0.13480446  0.53962206  0.81490418     0.35900
H1550       H  0.25393549  0.47177749  0.66539207     0.28500
H1551       H  0.37386493  0.47179220  0.75798569     0.41400
H1552       H  0.33028273  0.62699945  0.75423745     0.31500
H1553       H  0.35856544  0.58457803  0.70603331     0.39100
H1554       H  0.13934485  0.98852211  0.81743523     0.30900
H1555       H  0.25577177  0.62270579  0.83372798     0.31000
H1556       H  0.12649881  0.58311520  0.77238022     0.31300
N1557       N  0.42287140  0.76841814  0.89966447    -0.03200
C1558       C  0.40457817  0.78848609  0.91817295    -0.00600
C1559       C  0.42338204  0.81646958  0.91503199    -0.23500
C1560       C  0.45306131  0.81280835  0.89418565    -0.23700
C1561       C  0.45231328  0.78275892  0.88461324    -0.00700
H1562       H  0.41544075  0.83786962  0.92569926     0.13000
H1563       H  0.47095670  0.83084532  0.88508980     0.13100
N1564       N  0.42058354  0.55576508  0.84685889    -0.03200
C1565       C  0.44961916  0.54023710  0.86072066    -0.00600
C1566       C  0.45600108  0.01262940  0.84639310    -0.23500
C1567       C  0.42647008  0.01145844  0.82541783    -0.25700
C1568       C  0.40103676  0.53680942  0.82793286    -0.00700
H1569       H  0.47439049  0.99378974  0.85250878     0.13000
H1570       H  0.41937224  0.99181798  0.81144898     0.13100
N1571       N  0.23856447  0.66311993  0.62790148    -0.03200
C1572       C  0.21546658  0.64501171  0.64676758    -0.00600
C1573       C  0.17826562  0.65367517  0.64049044    -0.23500
C1574       C  0.17887602  0.67606020  0.61763251    -0.23700
C1575       C  0.21643726  0.68219591  0.60963864    -0.00700
H1576       H  0.15284524  0.64424741  0.65107256     0.13000
H1577       H  0.15412591  0.68691408  0.60781600     0.13100
N1578       N  0.01671242  0.66541262  0.62364131    -0.03200
C1579       C  0.03937702  0.68306245  0.64293892    -0.00600
C1580       C  0.07674994  0.67632610  0.63498656    -0.23500
C1581       C  0.07654295  0.65454332  0.61145841    -0.23700
C1582       C  0.03896492  0.64783214  0.60397776    -0.00700
H1583       H  0.10186273  0.68600326  0.64557972     0.13000
H1584       H  0.10158332  0.64481507  0.60071500     0.13100
Zr1585     Zr  0.44294204  0.79994069  0.78685510     2.17500
O1586       O  0.37815968  0.78438540  0.80088466    -0.51100
O1587       O  0.44701466  0.84508821  0.82378835    -0.74300
O1588       O  0.44041115  0.77136060  0.83344819    -0.81100
O1589       O  0.39912244  0.84135786  0.71891758    -0.82800
O1590       O  0.50251975  0.77023473  0.84586708    -0.78500
O1591       O  0.38989472  0.82972465  0.76910822    -0.90100
O1592       O  0.00535569  0.87422499  0.81495022    -0.76100
O1593       O  0.50747983  0.80463673  0.80291090    -0.85500
O1594       O  0.46909374  0.83679819  0.75277355    -0.85200
O1595       O  0.47099428  0.74925373  0.77984631    -0.72000
O1596       O  0.43600587  0.77880717  0.73558750    -0.84100
Zr1597     Zr  0.05803951  0.77312383  0.71302301     2.26400
Zr1598     Zr  0.53643067  0.75510582  0.79592745     2.06300
Zr1599     Zr  0.46251542  0.81673007  0.70138655     2.10000
Zr1600     Zr  0.03772432  0.84514325  0.77178944     1.78800
O1601       O  0.41382403  0.81171185  0.66214507    -0.92900
O1602       O  0.08294870  0.84964963  0.81382685    -0.40700
O1603       O  0.03245685  0.82458488  0.71989576    -0.77400
O1604       O  0.06503433  0.79469314  0.76432744    -0.96100
O1605       O  0.03014080  0.73739187  0.74746709    -0.89400
O1606       O  0.99364138  0.76987272  0.69618502    -0.92200
C1607       C  0.47194526  0.86625319  0.83079095     1.01600
C1608       C  0.37946419  0.84315910  0.74453668     1.14500
C1609       C  0.46651902  0.77322769  0.85329669     1.05300
O1610       O  0.08671400  0.77097676  0.83368392    -0.94400
O1611       O  0.09548400  0.73127273  0.78107518    -0.90100
O1612       O  0.11126913  0.74498432  0.73249319    -0.83200
C1613       C  0.11818574  0.73063374  0.75726298     1.11900
O1614       O  0.40850074  0.70363458  0.74940298    -0.96300
Zr1615     Zr  0.46505162  0.72872389  0.72823657     1.88900
O1616       O  0.05299134  0.72769930  0.67659282    -0.73000
O1617       O  0.52525254  0.70398783  0.81600118    -0.52200
O1618       O  0.47755129  0.67643253  0.74441973    -0.96900
O1619       O  0.41004371  0.72578059  0.69484159    -0.54100
O1620       O  0.49492197  0.70076330  0.68290373    -0.73500
C1621       C  0.02835617  0.70641919  0.66929304     0.98800
O1622       O  0.12401573  0.78293224  0.69748034    -0.62300
O1623       O  0.98293982  0.87071552  0.68024201    -0.57100
O1624       O  0.06321430  0.80353650  0.66755674    -0.93800
O1625       O  0.00256514  0.80775932  0.65211214    -0.92200
O1626       O  0.03353713  0.89824635  0.75531101    -0.92600
O1627       O  0.09879724  0.86198244  0.75054616    -0.91400
C1628       C  0.03854388  0.80225038  0.64646329     1.17700
H1629       H  0.45619430  0.85623455  0.75496500     0.33600
H1630       H  0.09212211  0.79593131  0.76885988     0.44500
H1631       H  0.99114285  0.76187453  0.67573783     0.38000
H1632       H  0.45893407  0.73481028  0.79354370     0.34500
H1633       H  0.07165636  0.83749415  0.83071654     0.26300
H1634       H  0.54919027  0.69283511  0.81158473     0.32200
H1635       H  0.50513784  0.67334865  0.74057108     0.38100
H1636       H  0.01413997  0.89832276  0.73896045     0.32600
H1637       H  0.97248444  0.88569310  0.69501017     0.31500
H1638       H  0.41287915  0.83214585  0.65241354     0.33100
H1639       H  0.41581829  0.70815709  0.68146593     0.32100
H1640       H  0.10629775  0.88020744  0.76255196     0.36100
H1641       H  0.12618127  0.77575915  0.67604274     0.28800
H1642       H  0.37352457  0.79303615  0.82151401     0.33100
H1643       H  0.40874622  0.70796587  0.77161785     0.35900
H1644       H  0.01098309  0.87261808  0.68223005     0.28500
H1645       H  0.12676129  0.80545576  0.69642554     0.41400
H1646       H  0.10549530  0.78285189  0.82152675     0.31500
H1647       H  0.10576635  0.83801861  0.80737215     0.39100
H1648       H  0.41233117  0.74395795  0.68146097     0.30900
H1649       H  0.52537440  0.70686482  0.83843755     0.31000
H1650       H  0.37905053  0.76195512  0.80392420     0.31300
N1651       N  0.26275081  0.91314771  0.87633140    -0.03200
C1652       C  0.28548845  0.89425050  0.89413706    -0.00600
C1653       C  0.32288376  0.90284406  0.88811886    -0.23500
C1654       C  0.32283666  0.92638834  0.86652783    -0.23700
C1655       C  0.28532060  0.93321237  0.85927706    -0.00700
H1656       H  0.34794691  0.89271249  0.89820652     0.13000
H1657       H  0.34793475  0.93765614  0.85733567     0.13100
N1658       N  0.48531596  0.90809988  0.87550254    -0.03200
C1659       C  0.46184662  0.89039978  0.85676893    -0.00600
C1660       C  0.42477669  0.89792973  0.86497496    -0.23500
C1661       C  0.42598856  0.92019800  0.88803323    -0.23700
C1662       C  0.46378483  0.92650556  0.89512745    -0.00700
H1663       H  0.39913040  0.88857162  0.85487906     0.13000
H1664       H  0.40142256  0.93070264  0.89871274     0.13100
Zr1665     Zr  0.44458786  0.52110030  0.96214160     2.17500
O1666       O  0.38012611  0.54075994  0.95488788    -0.51100
O1667       O  0.45089309  0.97188348  0.92798418    -0.74300
O1668       O  0.43701520  0.54098099  0.91241455    -0.81100
O1669       O  0.40945400  0.97489020  0.52745520    -0.82800
O1670       O  0.49736010  0.55611647  0.90013365    -0.78500
O1671       O  0.39700209  0.98648349  0.97962201    -0.90100
O1672       O  0.00285772  0.95585729  0.93332365    -0.76100
O1673       O  0.50788771  0.51935225  0.94331102    -0.85500
O1674       O  0.47567616  0.98237081  0.99732161    -0.85200
O1675       O  0.46977577  0.57280088  0.96729366    -0.72000
O1676       O  0.43837786  0.54417637  0.51252789    -0.84100
Zr1677     Zr  0.05442224  0.55679528  0.53603984     2.26400
Zr1678     Zr  0.53462373  0.56963094  0.94922862     2.06300
Zr1679     Zr  0.47068421  0.00254547  0.54462233     2.10000
Zr1680     Zr  0.03403484  0.48174878  0.97966156     1.78800
O1681       O  0.42038582  0.00086657  0.58322245    -0.92900
O1682       O  0.08808361  0.47774960  0.94459152    -0.40700
O1683       O  0.02870843  0.50538550  0.53069288    -0.77400
O1684       O  0.06343680  0.53188542  0.98665508    -0.96100
O1685       O  0.02972618  0.59292368  0.50077378    -0.89400
O1686       O  0.98960261  0.56010539  0.55229976    -0.92200
C1687       C  0.47573602  0.95102815  0.92045050     1.01600
C1688       C  0.38996404  0.97142548  0.50211494     1.14500
C1689       C  0.46271183  0.54714003  0.89283770     1.05300
O1690       O  0.08908964  0.55617853  0.91582688    -0.94400
O1691       O  0.10079194  0.59223448  0.97060226    -0.90100
O1692       O  0.10992191  0.58356137  0.51919175    -0.83200
C1693       C  0.12186661  0.59405929  0.99531670     1.11900
O1694       O  0.41211854  0.62163621  0.49918212    -0.96300
Zr1695     Zr  0.46739659  0.59453469  0.51893157     1.88900
O1696       O  0.05225289  0.60364638  0.57010738    -0.73000
O1697       O  0.52566887  0.61927163  0.92536183    -0.52200
O1698       O  0.48525719  0.64454026  0.49877538    -0.96900
O1699       O  0.41252856  0.59910921  0.55262303    -0.54100
O1700       O  0.49703035  0.62294244  0.56361167    -0.73500
C1701       C  0.02737674  0.62433407  0.57790417     0.98800
O1702       O  0.11601239  0.53453305  0.54917721    -0.62300
O1703       O  0.97527248  0.95498316  0.56916010    -0.57100
O1704       O  0.05677346  0.54199964  0.58786927    -0.93800
O1705       O  0.00011154  0.51833493  0.59828812    -0.92200
O1706       O  0.01704986  0.93266094  0.99699499    -0.92600
O1707       O  0.08759483  0.45330362  0.00044499    -0.91400
C1708       C  0.03293772  0.53048835  0.60651051     1.17700
H1709       H  0.46336556  0.96263055  0.99570762     0.33600
H1710       H  0.09056095  0.52998765  0.98267370     0.44500
H1711       H  0.98697543  0.56767516  0.57293984     0.38000
H1712       H  0.45590064  0.58606462  0.95364232     0.34500
H1713       H  0.07705120  0.46951995  0.92548985     0.26300
H1714       H  0.50351885  0.62821057  0.93622893     0.32200
H1715       H  0.47808973  0.65920707  0.51506033     0.38100
H1716       H  0.02806846  0.91878563  0.98141887     0.32600
H1717       H  0.96432700  0.94142387  0.55329781     0.31500
H1718       H  0.42293797  0.02041929  0.59446069     0.33100
H1719       H  0.41577820  0.61938395  0.56235461     0.32100
H1720       H  0.09161900  0.46202415  0.02108403     0.36100
H1721       H  0.12394214  0.54403171  0.56873288     0.28800
H1722       H  0.38342229  0.56144181  0.94604259     0.33100
H1723       H  0.40089069  0.60761775  0.48384786     0.35900
H1724       H  0.00316617  0.95183628  0.56755706     0.28500
H1725       H  0.12111997  0.51596939  0.03083991     0.41400
H1726       H  0.07665378  0.54443315  0.89924487     0.31500
H1727       H  0.09504165  0.49902361  0.93923985     0.39100
H1728       H  0.41771210  0.58412228  0.56900484     0.30900
H1729       H  0.54773098  0.63176452  0.93206015     0.31000
H1730       H  0.37032782  0.54466303  0.97582024     0.31300
N1731       N  0.16386175  0.68751368  0.77359773    -0.03200
C1732       C  0.19813222  0.67565269  0.76377764    -0.00600
C1733       C  0.21050003  0.69333320  0.73938620    -0.23500
C1734       C  0.18370592  0.71617499  0.73479814    -0.23700
C1735       C  0.15507081  0.71235723  0.75649284    -0.00700
H1736       H  0.23447136  0.68842737  0.72449295     0.13000
H1737       H  0.18431967  0.73290774  0.71657169     0.13100
N1738       N  0.17021380  0.63592678  0.97955647    -0.03200
C1739       C  0.15840385  0.61174335  0.49506742    -0.00600
C1740       C  0.18523988  0.60797755  0.51796686    -0.23500
C1741       C  0.21420875  0.62929749  0.51295133    -0.23700
C1742       C  0.20489371  0.64607366  0.48714854    -0.00700
H1743       H  0.18309633  0.59262314  0.53731226     0.13000
H1744       H  0.23722174  0.63432027  0.52863209     0.13100
Zr1745     Zr  0.19786867  0.74779783  0.51687547     2.17500
O1746       O  0.13196157  0.73782033  0.50204851    -0.51100
O1747       O  0.20225985  0.71335964  0.56350500    -0.74300
O1748       O  0.19362161  0.69716620  0.49711335    -0.81100
O1749       O  0.15567311  0.81498684  0.55827090    -0.82800
O1750       O  0.25128926  0.68858529  0.97505847    -0.78500
O1751       O  0.14685897  0.76434400  0.54908714    -0.90100
O1752       O  0.26090401  0.71966750  0.58354784    -0.76100
O1753       O  0.26205273  0.73060519  0.51660683    -0.85500
O1754       O  0.22725486  0.78115983  0.55248677    -0.85200
O1755       O  0.22140687  0.75547704  0.96454248    -0.72000
O1756       O  0.18927618  0.79891854  0.49619105    -0.84100
Zr1757     Zr  0.30694419  0.82424076  0.98242590     2.26400
Zr1758     Zr  0.28721857  0.73935029  0.96563979     2.06300
Zr1759     Zr  0.21854935  0.83246883  0.53302598     2.10000
Zr1760     Zr  0.29099676  0.76289165  0.55314092     1.78800
O1761       O  0.16968782  0.87175246  0.53023470    -0.92900
O1762       O  0.34023779  0.72355150  0.55253479    -0.40700
O1763       O  0.28402330  0.81526145  0.53428076    -0.77400
O1764       O  0.31664169  0.77281420  0.00254476    -0.96100
O1765       O  0.27910036  0.79057403  0.94616449    -0.89400
O1766       O  0.24226975  0.84010664  0.98115406    -0.92200
C1767       C  0.22776083  0.70625413  0.58390588     1.01600
C1768       C  0.13653316  0.78934371  0.56159140     1.14500
C1769       C  0.21797478  0.67975401  0.98592006     1.05300
O1770       O  0.33774619  0.70123668  0.96734443    -0.94400
O1771       O  0.35020048  0.75814280  0.94139611    -0.90100
O1772       O  0.35680333  0.80922595  0.94880846    -0.83200
C1773       C  0.36828722  0.78418004  0.93729094     1.11900
O1774       O  0.15793169  0.78402819  0.92260565    -0.96300
Zr1775     Zr  0.21481198  0.80730967  0.94451309     1.88900
O1776       O  0.29947838  0.86141215  0.93853051    -0.73000
O1777       O  0.27433645  0.72456742  0.91297744    -0.52200
O1778       O  0.22247868  0.78991302  0.89186116    -0.96900
O1779       O  0.16314727  0.84419087  0.94358086    -0.54100
O1780       O  0.24327499  0.85216603  0.91494404    -0.73500
C1781       C  0.27486115  0.86778877  0.91724986     0.98800
O1782       O  0.37360585  0.83793204  0.99142202    -0.62300
O1783       O  0.23206318  0.85023222  0.58464426    -0.57100
O1784       O  0.31385358  0.87002261  0.01180918    -0.93800
O1785       O  0.25490507  0.88210729  0.52133263    -0.92200
O1786       O  0.28535731  0.77618288  0.60706309    -0.92600
O1787       O  0.34981185  0.78461858  0.57336057    -0.91400
C1788       C  0.29132245  0.88647399  0.51692046     1.17700
H1789       H  0.21594987  0.77893322  0.57254899     0.33600
H1790       H  0.34371973  0.76891019  0.00282321     0.44500
H1791       H  0.23897097  0.86073061  0.97382095     0.38000
H1792       H  0.20711160  0.74178125  0.95153569     0.34500
H1793       H  0.32606479  0.70392481  0.55199981     0.26300
H1794       H  0.24625762  0.72276949  0.91146395     0.32200
H1795       H  0.24597182  0.80008533  0.88426596     0.38100
H1796       H  0.27139397  0.79577370  0.60741191     0.32600
H1797       H  0.22113000  0.83425685  0.59817265     0.31500
H1798       H  0.17813788  0.88761339  0.54493341     0.33100
H1799       H  0.14298290  0.83570369  0.95709525     0.32100
H1800       H  0.34402916  0.80649790  0.57684549     0.36100
H1801       H  0.36836527  0.86729970  0.47903691     0.28800
H1802       H  0.12637036  0.71639344  0.50792812     0.33100
H1803       H  0.13991577  0.78203576  0.94000884     0.35900
H1804       H  0.26003849  0.84823172  0.58688006     0.28500
H1805       H  0.37652004  0.83881493  0.01391941     0.41400
H1806       H  0.32556030  0.68242359  0.97540358     0.31500
H1807       H  0.35271598  0.72487372  0.53222930     0.39100
H1808       H  0.15248234  0.84289194  0.92268113     0.30900
H1809       H  0.28089265  0.74294052  0.90076529     0.31000
H1810       H  0.13220637  0.73794857  0.47943033     0.31300
N1811       N  0.32765695  0.88527657  0.73256438    -0.03200
C1812       C  0.29790195  0.89852504  0.74812609    -0.00600
C1813       C  0.29418374  0.88350327  0.77576227    -0.23500
C1814       C  0.32155692  0.86059761  0.77636274    -0.23700
C1815       C  0.34269463  0.86190016  0.74926627    -0.00700
H1816       H  0.27591618  0.89009286  0.79465551     0.13000
H1817       H  0.32685073  0.84570328  0.79563595     0.13100
N1818       N  0.33747209  0.93219964  0.51891732    -0.03200
C1819       C  0.30235772  0.92209964  0.00489184    -0.00600
C1820       C  0.30165453  0.93257130  0.97512067    -0.23500
C1821       C  0.33048738  0.95429211  0.97227847    -0.23700
C1822       C  0.34902433  0.95675775  0.00035901    -0.00700
H1823       H  0.28456414  0.92350811  0.95665985     0.13000
H1824       H  0.33839807  0.96573183  0.95121320     0.13100
C1825       C  0.26956037  0.92826965  0.61180974    -0.17600
C1826       C  0.26782790  0.91524094  0.64060406    -0.19800
C1827       C  0.30158372  0.90780457  0.65568141     0.20900
C1828       C  0.33748218  0.91373904  0.64248188    -0.02700
C1829       C  0.33915999  0.92440687  0.61265763    -0.05700
C1830       C  0.30499556  0.93186402  0.59745509     0.21200
C1831       C  0.37451848  0.92501971  0.59717558     0.19300
C1832       C  0.40830955  0.91876855  0.61294888    -0.17200
C1833       C  0.40685357  0.91094872  0.64387857    -0.19400
C1834       C  0.37147006  0.90745704  0.65852991     0.20800
C1835       C  0.36895879  0.89769522  0.68881922    -0.32500
C1836       C  0.33300250  0.89106086  0.70115364     0.01500
C1837       C  0.29993000  0.89430266  0.68383531    -0.23800
C1838       C  0.30649560  0.93952378  0.56703996    -0.28400
C1839       C  0.34030560  0.93517113  0.55082494     0.07200
C1840       C  0.37462207  0.92899402  0.56567787    -0.27000
H1841       H  0.24326305  0.93358803  0.60002821     0.11900
H1842       H  0.24027560  0.91096056  0.65113517     0.13000
H1843       H  0.43558176  0.91951795  0.60125832     0.12100
H1844       H  0.43307508  0.90630715  0.65588963     0.11400
H1845       H  0.39433659  0.89586503  0.70269678     0.16700
H1846       H  0.27232241  0.88845188  0.69360066     0.12700
H1847       H  0.28037864  0.94467578  0.55487125     0.15500
H1848       H  0.40041387  0.92491736  0.55259293     0.15300
C1849       C  0.12926181  0.71120957  0.90711099    -0.17600
C1850       C  0.13132188  0.71943164  0.87640567    -0.19800
C1851       C  0.13332239  0.69667151  0.85387825     0.20900
C1852       C  0.13017684  0.66561218  0.86189467    -0.02700
C1853       C  0.13209031  0.65746930  0.89257116    -0.05700
C1854       C  0.13241776  0.68044168  0.91528802     0.21200
C1855       C  0.13901771  0.62672968  0.90013973     0.19300
C1856       C  0.13769243  0.60387637  0.87776704    -0.17200
C1857       C  0.13185564  0.61177613  0.84741300    -0.19400
C1858       C  0.13069574  0.64261994  0.83921356     0.20800
C1859       C  0.13548631  0.65086082  0.80888976    -0.32500
C1860       C  0.14579577  0.68077803  0.80188747     0.01500
C1861       C  0.14317293  0.70391384  0.82403592    -0.23800
C1862       C  0.14056444  0.67247495  0.94522952    -0.28400
C1863       C  0.15273711  0.64292224  0.95147439     0.07200
C1864       C  0.15112288  0.61997622  0.92928559    -0.27000
H1865       H  0.12903204  0.72885601  0.92440971     0.11900
H1866       H  0.13343396  0.74340096  0.87045257     0.13000
H1867       H  0.14316438  0.58020890  0.88345740     0.12100
H1868       H  0.13238008  0.59412675  0.83009087     0.11400
H1869       H  0.13544401  0.63360090  0.79134992     0.16700
H1870       H  0.15136888  0.72717727  0.81838945     0.12700
H1871       H  0.14084268  0.68957411  0.96291905     0.15500
H1872       H  0.16090738  0.59709651  0.93461027     0.15300
C1873       C  0.10439520  0.91970596  0.81941954    -0.17600
C1874       C  0.14393449  0.91627361  0.81949394    -0.19800
C1875       C  0.16340680  0.91353955  0.84726983     0.20900
C1876       C  0.14286732  0.91210507  0.87506378    -0.02700
C1877       C  0.10300563  0.91289567  0.87471301    -0.05700
C1878       C  0.08381310  0.91791106  0.84690533     0.21200
C1879       C  0.08235223  0.90898354  0.90221444     0.19300
C1880       C  0.10168132  0.90612725  0.93002320    -0.17200
C1881       C  0.14139327  0.90787181  0.93063391    -0.19400
C1882       C  0.16213880  0.91026355  0.90323862     0.20800
C1883       C  0.20182323  0.91105609  0.90345714    -0.32500
C1884       C  0.22223196  0.91222824  0.87586765     0.01500
C1885       C  0.20308067  0.91281688  0.84786130    -0.23800
C1886       C  0.04431720  0.92081961  0.84719551    -0.28400
C1887       C  0.02380728  0.91506729  0.87410285     0.07200
C1888       C  0.04270338  0.90832096  0.90132379    -0.27000
H1889       H  0.08986644  0.92325126  0.79790486     0.11900
H1890       H  0.15942157  0.91712486  0.79798645     0.13000
H1891       H  0.08611171  0.90336716  0.95131092     0.12100
H1892       H  0.15592243  0.90652331  0.95241461     0.11400
H1893       H  0.21695037  0.91090568  0.92502160     0.16700
H1894       H  0.21919482  0.91328614  0.82664501     0.12700
H1895       H  0.02929179  0.92674004  0.82642658     0.15500
H1896       H  0.02639623  0.90308900  0.92179384     0.15300
C1897       C  0.39841581  0.71820708  0.62116919    -0.17600
C1898       C  0.35895102  0.71833884  0.62548329    -0.19800
C1899       C  0.33876857  0.69063740  0.62719759     0.20900
C1900       C  0.35825570  0.66264056  0.62459043    -0.02700
C1901       C  0.39804478  0.66249172  0.62318180    -0.05700
C1902       C  0.41820264  0.69041231  0.62101275     0.21200
C1903       C  0.41762687  0.63440842  0.62435039     0.19300
C1904       C  0.39725590  0.60677740  0.62513180    -0.17200
C1905       C  0.35757609  0.60693769  0.62334471    -0.19400
C1906       C  0.33795300  0.63475919  0.62353420     0.20800
C1907       C  0.29833479  0.63532866  0.62278140    -0.32500
C1908       C  0.27906819  0.66281254  0.62760095     0.01500
C1909       C  0.29936692  0.69022152  0.63116539    -0.23800
C1910       C  0.45784047  0.68996968  0.61985819    -0.28400
C1911       C  0.47715767  0.66217355  0.62220133     0.07200
C1912       C  0.45724352  0.63452230  0.62450638    -0.27000
H1913       H  0.41362424  0.73978039  0.61947817     0.11900
H1914       H  0.34419633  0.73999701  0.62694316     0.13000
H1915       H  0.41205256  0.58509055  0.62608089     0.12100
H1916       H  0.34220461  0.58538763  0.62287108     0.11400
H1917       H  0.28240409  0.61444780  0.61878696     0.16700
H1918       H  0.28421676  0.71126523  0.63586068     0.12700
H1919       H  0.47381465  0.71115129  0.61801402     0.15500
H1920       H  0.47276772  0.61322030  0.62638977     0.15300
C1921       C  0.48612850  0.67477228  0.88578762    -0.17600
C1922       C  0.48586140  0.64710739  0.87033234    -0.19800
C1923       C  0.45103614  0.63288030  0.86380880     0.20900
C1924       C  0.41619512  0.64640644  0.87224382    -0.02700
C1925       C  0.41645109  0.67556776  0.88458872    -0.05700
C1926       C  0.45159414  0.68947862  0.89189613     0.21200
C1927       C  0.38183870  0.69156741  0.88767672     0.19300
C1928       C  0.34701356  0.67663410  0.88237078    -0.17200
C1929       C  0.34668572  0.64593543  0.87373939    -0.19400
C1930       C  0.38121199  0.63097006  0.86785279     0.20800
C1931       C  0.38191104  0.60062570  0.85848431    -0.32500
C1932       C  0.41672070  0.58763820  0.84987899     0.01500
C1933       C  0.45048611  0.60465975  0.85013511    -0.23800
C1934       C  0.45175344  0.71912286  0.90224411    -0.28400
C1935       C  0.41854980  0.73639989  0.90004269     0.07200
C1936       C  0.38337122  0.72275270  0.89346647    -0.27000
H1937       H  0.51321782  0.68548985  0.89121795     0.11900
H1938       H  0.51274091  0.63647195  0.86425480     0.13000
H1939       H  0.32024699  0.68859849  0.88483136     0.12100
H1940       H  0.31964928  0.63436143  0.87045239     0.11400
H1941       H  0.35614647  0.58693864  0.85946338     0.16700
H1942       H  0.47713473  0.59412513  0.84317631     0.12700
H1943       H  0.47861660  0.73021511  0.90775594     0.15500
H1944       H  0.35805113  0.73654200  0.89071239     0.15300
C1945       C  0.01773538  0.89795600  0.61721501    -0.17600
C1946       C  0.01732157  0.92603970  0.63192540    -0.19800
C1947       C  0.05187703  0.94048631  0.63896458     0.20900
C1948       C  0.08705619  0.92648106  0.63228875    -0.02700
C1949       C  0.08734231  0.89722868  0.62010907    -0.05700
C1950       C  0.05258257  0.88347326  0.61160532     0.21200
C1951       C  0.12227267  0.88163863  0.61662131     0.19300
C1952       C  0.15678887  0.89657024  0.62296415    -0.17200
C1953       C  0.15658501  0.92719590  0.63184175    -0.19400
C1954       C  0.12183822  0.94217542  0.63668408     0.20800
C1955       C  0.12081400  0.97306615  0.64396444    -0.32500
C1956       C  0.07996671  0.48765559  0.64692772     0.01500
C1957       C  0.05191554  0.96968380  0.65052829    -0.23800
C1958       C  0.05318016  0.85464241  0.59917279    -0.28400
C1959       C  0.08675497  0.83761609  0.60014289     0.07200
C1960       C  0.12150840  0.85102936  0.60818738    -0.27000
H1961       H  0.99095791  0.88715179  0.61108301     0.11900
H1962       H  0.99021085  0.93699038  0.63659305     0.13000
H1963       H  0.18376792  0.88487885  0.62026241     0.12100
H1964       H  0.18335925  0.93907114  0.63523486     0.11400
H1965       H  0.14660717  0.98669788  0.64267645     0.16700
H1966       H  0.02501647  0.98072242  0.65585659     0.12700
H1967       H  0.02657795  0.84366352  0.59270329     0.15500
H1968       H  0.14707913  0.83734689  0.60981589     0.15300
N1969       N  0.57537822  0.30799500  0.09536922    -0.03200
C1970       C  0.54466334  0.29253564  0.10738088    -0.00600
C1971       C  0.54190269  0.26495845  0.09218068    -0.23500
C1972       C  0.57084301  0.26436333  0.07036712    -0.23700
C1973       C  0.59193410  0.29139361  0.07262362    -0.00700
H1974       H  0.52345999  0.24597254  0.09823610     0.13000
H1975       H  0.57727615  0.24505651  0.05575263     0.13100
N1976       N  0.58323307  0.02189465  0.14915512    -0.03200
C1977       C  0.55438765  0.03560750  0.13330953    -0.00600
C1978       C  0.55342313  0.06593318  0.14201820    -0.23500
C1979       C  0.58214937  0.07023159  0.16349763    -0.23700
C1980       C  0.60080359  0.04244000  0.16767236    -0.00700
H1981       H  0.53564943  0.08357017  0.13240534     0.13000
H1982       H  0.58948875  0.09186814  0.17401964     0.13100
Zr1983     Zr  0.69667300  0.08021676  0.23309625     2.17500
O1984       O  0.63061592  0.08809022  0.24883224    -0.51100
O1985       O  0.70022051  0.11575628  0.18734819    -0.74300
O1986       O  0.69191461  0.13089189  0.25232620    -0.81100
O1987       O  0.65547459  0.01319665  0.19119021    -0.82800
O1988       O  0.74984426  0.14166891  0.27317899    -0.78500
O1989       O  0.64600467  0.06371661  0.20065476    -0.90100
O1990       O  0.75775578  0.10910961  0.16504686    -0.76100
O1991       O  0.76080793  0.09803028  0.23173128    -0.85500
O1992       O  0.72497834  0.04683526  0.19695685    -0.85200
O1993       O  0.72066956  0.07382075  0.28502853    -0.72000
O1994       O  0.68909256  0.02905114  0.25392859    -0.84100
Zr1995     Zr  0.80626450  0.00644264  0.26626072     2.26400
Zr1996     Zr  0.78632735  0.09134806  0.28255336     2.06300
Zr1997     Zr  0.71795257  0.49417757  0.21549359     2.10000
Zr1998     Zr  0.78839403  0.06561116  0.19448845     1.78800
O1999       O  0.66484260  0.45819330  0.21796484    -0.92900
O2000       O  0.83882294  0.10377169  0.18834396    -0.40700
O2001       O  0.78268233  0.01361139  0.21462583    -0.77400
O2002       O  0.81474951  0.05766637  0.24540016    -0.96100
O2003       O  0.77872717  0.04007698  0.30270320    -0.89400
O2004       O  0.74037123  0.48734488  0.26754887    -0.92200
C2005       C  0.72503196  0.12297881  0.16623905     1.01600
C2006       C  0.63616339  0.03869133  0.18788048     1.14500
C2007       C  0.71595115  0.14972737  0.26328954     1.05300
O2008       O  0.83864635  0.12707891  0.27321837    -0.94400
O2009       O  0.84959510  0.07420324  0.30778785    -0.90100
O2010       O  0.85654557  0.02353012  0.29831013    -0.83200
C2011       C  0.86833521  0.04831103  0.31029110     1.11900
O2012       O  0.65585875  0.03960173  0.32855906    -0.96300
Zr2013     Zr  0.71477937  0.02170872  0.30504110     1.88900
O2014       O  0.79794695  0.46795024  0.31092752    -0.73000
O2015       O  0.77375117  0.11179175  0.33337602    -0.52200
O2016       O  0.72426583  0.03906364  0.35741264    -0.96900
O2017       O  0.65594433  0.48875528  0.30564779    -0.54100
O2018       O  0.74066993  0.47569013  0.33367992    -0.73500
C2019       C  0.77301008  0.46118888  0.33211119     0.98800
O2020       O  0.86909002  0.99164225  0.24705929    -0.62300
O2021       O  0.73672205  0.47190409  0.16663898    -0.57100
O2022       O  0.81238100  0.46033860  0.23316397    -0.93800
O2023       O  0.75222018  0.44407281  0.22862415    -0.92200
O2024       O  0.77530584  0.04280059  0.14471431    -0.92600
O2025       O  0.84837612  0.04842791  0.17210537    -0.91400
C2026       C  0.78824141  0.43873292  0.23387750     1.17700
H2027       H  0.71317409  0.04888552  0.17711448     0.33600
H2028       H  0.84185272  0.06195041  0.24443148     0.44500
H2029       H  0.73711363  0.46673554  0.27501644     0.38000
H2030       H  0.70646057  0.08728037  0.29844916     0.34500
H2031       H  0.82548444  0.12364076  0.18715526     0.26300
H2032       H  0.77266479  0.09357193  0.34678550     0.32200
H2033       H  0.75060268  0.03282825  0.36255736     0.38100
H2034       H  0.79049619  0.05495125  0.12992654     0.32600
H2035       H  0.72553312  0.48548126  0.15099512     0.31500
H2036       H  0.66893677  0.44442733  0.20027501     0.33100
H2037       H  0.65801415  0.47753003  0.32519659     0.32100
H2038       H  0.84612183  0.02586614  0.17138609     0.36100
H2039       H  0.88416925  0.01078642  0.24552991     0.28800
H2040       H  0.62423930  0.10935390  0.24308036     0.33100
H2041       H  0.63865906  0.04376484  0.31115354     0.35900
H2042       H  0.76012358  0.97711101  0.16410936     0.28500
H2043       H  0.88116941  0.97984364  0.26372954     0.41400
H2044       H  0.82814390  0.14744735  0.27826052     0.31500
H2045       H  0.85202771  0.10440238  0.20829655     0.39100
H2046       H  0.66038230  0.47328883  0.28950986     0.30900
H2047       H  0.74710577  0.11921023  0.33270923     0.31000
H2048       H  0.63102370  0.08784840  0.27143651     0.31300
N2049       N  0.91769368  0.27410895  0.39915786    -0.03200
C2050       C  0.89946007  0.29392339  0.41804724    -0.00600
C2051       C  0.91850339  0.32187737  0.41554919    -0.23500
C2052       C  0.94833405  0.31848553  0.39479166    -0.23700
C2053       C  0.94758392  0.28857088  0.38476373    -0.00700
H2054       H  0.91070824  0.34308234  0.42667224     0.13000
H2055       H  0.96643902  0.33661926  0.38613389     0.13100
N2056       N  0.92364112  0.05943660  0.34966045    -0.03200
C2057       C  0.95415062  0.04349240  0.36093376    -0.00600
C2058       C  0.95170039  0.51510478  0.34923286    -0.23500
C2059       C  0.92237859  0.51336113  0.32817689    -0.25700
C2060       C  0.90629853  0.04316117  0.32706657    -0.00700
H2061       H  0.96838221  0.49602324  0.35739606     0.13000
H2062       H  0.91402019  0.49278189  0.31614793     0.13100
N2063       N  0.73553536  0.16674820  0.12302922    -0.03200
C2064       C  0.71339763  0.14790137  0.14170454    -0.00600
C2065       C  0.67578458  0.15538313  0.13548681    -0.23500
C2066       C  0.67532009  0.17818777  0.11301693    -0.23700
C2067       C  0.71263244  0.18563801  0.10533536    -0.00700
H2068       H  0.65090395  0.14512082  0.14610227     0.13000
H2069       H  0.65007220  0.18859554  0.10351104     0.13100
N2070       N  0.51479710  0.16134988  0.12407604    -0.03200
C2071       C  0.53692736  0.17981152  0.14300711    -0.00600
C2072       C  0.57446337  0.17458376  0.13438626    -0.23500
C2073       C  0.57497097  0.15266294  0.11101287    -0.23700
C2074       C  0.53767414  0.14434809  0.10431430    -0.00700
H2075       H  0.59923600  0.18552340  0.14427274     0.13000
H2076       H  0.60025007  0.14403003  0.09970144     0.13100
Zr2077     Zr  0.94398452  0.30582930  0.28644858     2.17500
O2078       O  0.88103358  0.28519801  0.29917618    -0.51100
O2079       O  0.94847597  0.35042948  0.32367963    -0.74300
O2080       O  0.93667408  0.27933623  0.33334000    -0.81100
O2081       O  0.90359979  0.34924932  0.22026227    -0.82800
O2082       O  0.99842004  0.27438899  0.34670382    -0.78500
O2083       O  0.89352655  0.33867206  0.27055091    -0.90100
O2084       O  0.50228280  0.37186763  0.31267955    -0.76100
O2085       O  0.00804246  0.30951072  0.30357493    -0.85500
O2086       O  0.97193584  0.34223628  0.25270446    -0.85200
O2087       O  0.97067489  0.25475978  0.28045445    -0.72000
O2088       O  0.93669841  0.28449615  0.23546576    -0.84100
Zr2089     Zr  0.55243775  0.27143557  0.21049962     2.26400
Zr2090     Zr  0.03541154  0.25963502  0.29752371     2.06300
Zr2091     Zr  0.96462378  0.32180134  0.20165205     2.10000
Zr2092     Zr  0.53129113  0.34427023  0.26703744     1.78800
O2093       O  0.91275575  0.31294619  0.16576973    -0.92900
O2094       O  0.58406781  0.35115509  0.30257716    -0.40700
O2095       O  0.52500211  0.32229454  0.21578348    -0.77400
O2096       O  0.56087945  0.29438767  0.26084932    -0.96100
O2097       O  0.52764161  0.23530136  0.24595557    -0.89400
O2098       O  0.48765248  0.26674281  0.19476504    -0.92200
C2099       C  0.97269237  0.37231812  0.32991210     1.01600
C2100       C  0.88418685  0.35221655  0.24590706     1.14500
C2101       C  0.96240445  0.27927697  0.35352298     1.05300
O2102       O  0.58408739  0.26964754  0.33257034    -0.94400
O2103       O  0.59618893  0.23389773  0.27801766    -0.90100
O2104       O  0.60840427  0.24562745  0.22833419    -0.83200
C2105       C  0.61781955  0.23311273  0.25352458     1.11900
O2106       O  0.91045888  0.21146488  0.25592616    -0.96300
Zr2107     Zr  0.96490457  0.23394469  0.22905940     1.88900
O2108       O  0.54981385  0.22421717  0.17675702    -0.73000
O2109       O  0.02970692  0.20899320  0.32011109    -0.52200
O2110       O  0.97434238  0.18111656  0.24475897    -0.96900
O2111       O  0.91058183  0.23093819  0.19486223    -0.54100
O2112       O  0.99467659  0.20481189  0.18439935    -0.73500
C2113       C  0.52522888  0.20304654  0.16927181     0.98800
O2114       O  0.61091876  0.29529901  0.19115590    -0.62300
O2115       O  0.46972149  0.36808406  0.17888450    -0.57100
O2116       O  0.55614864  0.28669453  0.15883637    -0.93800
O2117       O  0.49788133  0.30728279  0.14868942    -0.92200
O2118       O  0.51859657  0.39732432  0.25371366    -0.92600
O2119       O  0.58528500  0.36626260  0.23927160    -0.91400
C2120       C  0.53140104  0.29648486  0.14023041     1.17700
H2121       H  0.96015056  0.36205743  0.25472215     0.33600
H2122       H  0.58788535  0.29630167  0.26466378     0.44500
H2123       H  0.48517188  0.25890931  0.17424697     0.38000
H2124       H  0.95758711  0.24081480  0.29416348     0.34500
H2125       H  0.57565852  0.34077943  0.32158919     0.26300
H2126       H  0.04287094  0.21078879  0.34002638     0.32200
H2127       H  0.96137285  0.16876476  0.22887217     0.38100
H2128       H  0.50527226  0.39636910  0.23383684     0.32600
H2129       H  0.45248106  0.36852603  0.16103948     0.31500
H2130       H  0.89186151  0.30406303  0.17830783     0.33100
H2131       H  0.89045904  0.24363870  0.20441748     0.32100
H2132       H  0.59140690  0.35118658  0.22308680     0.36100
H2133       H  0.62559218  0.30131048  0.20950956     0.28800
H2134       H  0.86735128  0.28350815  0.27947153     0.33100
H2135       H  0.89364824  0.22898287  0.26074022     0.35900
H2136       H  0.45744170  0.38160181  0.19415829     0.28500
H2137       H  0.62596442  0.27865082  0.18163870     0.41400
H2138       H  0.60433358  0.27986935  0.32040176     0.31500
H2139       H  0.60524111  0.33846596  0.29467872     0.39100
H2140       H  0.90107527  0.20965571  0.19668154     0.30900
H2141       H  0.00234629  0.20685586  0.32539760     0.31000
H2142       H  0.86758840  0.30147691  0.31065342     0.31300
N2143       N  0.76121108  0.41627788  0.37354394    -0.03200
C2144       C  0.78346994  0.39765831  0.39194553    -0.00600
C2145       C  0.82100570  0.40600278  0.38608706    -0.23500
C2146       C  0.82138537  0.42905637  0.36390245    -0.23700
C2147       C  0.78397955  0.43573930  0.35610787    -0.00700
H2148       H  0.84584865  0.39602578  0.39665929     0.13000
H2149       H  0.84665806  0.44009354  0.35473351     0.13100
N2150       N  0.98441727  0.41472830  0.37463369    -0.03200
C2151       C  0.96181099  0.39622846  0.35595759    -0.00600
C2152       C  0.92444814  0.40168002  0.36506446    -0.23500
C2153       C  0.92451725  0.42368012  0.38836901    -0.23700
C2154       C  0.96192751  0.43186469  0.39471038    -0.00700
H2155       H  0.89931543  0.39084236  0.35561772     0.13000
H2156       H  0.89951852  0.43253115  0.39989201     0.13100
Zr2157     Zr  0.94610147  0.02072488  0.46449149     2.17500
O2158       O  0.88567632  0.04533540  0.45240573    -0.51100
O2159       O  0.94808589  0.47759227  0.42703461    -0.74300
O2160       O  0.94400806  0.03367652  0.41207417    -0.81100
O2161       O  0.89939481  0.48537901  0.03000394    -0.82800
O2162       O  0.00002863  0.05860345  0.40229148    -0.78500
O2163       O  0.89335419  0.49153523  0.47971372    -0.90100
O2164       O  0.50346277  0.45349996  0.43228086    -0.76100
O2165       O  0.01001595  0.01752412  0.44725368    -0.85500
O2166       O  0.97109769  0.48763310  0.49718598    -0.85200
O2167       O  0.97221935  0.07210492  0.46955734    -0.72000
O2168       O  0.93444405  0.04831835  0.01135662    -0.84100
Zr2169     Zr  0.55820241  0.05293701  0.03656212     2.26400
Zr2170     Zr  0.03715702  0.06772290  0.45249435     2.06300
Zr2171     Zr  0.96366698  0.50837644  0.04808052     2.10000
Zr2172     Zr  0.54058609  0.98188065  0.47363153     1.78800
O2173       O  0.91390579  0.51021385  0.08713803    -0.92900
O2174       O  0.58811739  0.97950576  0.43276501    -0.40700
O2175       O  0.53334256  0.00109935  0.02998985    -0.77400
O2176       O  0.56639817  0.03290786  0.48207728    -0.96100
O2177       O  0.52997374  0.08818089  0.00229978    -0.89400
O2178       O  0.49346109  0.05534238  0.05322829    -0.92200
C2179       C  0.97286677  0.45641792  0.42014142     1.01600
C2180       C  0.88064501  0.48245581  0.00414292     1.14500
C2181       C  0.96751853  0.04614016  0.39372136     1.05300
O2182       O  0.58674335  0.06278643  0.41118918    -0.94400
O2183       O  0.59786928  0.09614378  0.46665002    -0.90100
O2184       O  0.61212322  0.08144593  0.01779769    -0.83200
C2185       C  0.62063321  0.09571094  0.49045984     1.11900
O2186       O  0.91587161  0.12437980  0.98696917    -0.96300
Zr2187     Zr  0.96420373  0.09860116  0.01761345     1.88900
O2188       O  0.55181200  0.09893810  0.07204041    -0.73000
O2189       O  0.02916161  0.11832319  0.43034103    -0.52200
O2190       O  0.97970138  0.15189655  0.00668474    -0.96900
O2191       O  0.90760690  0.10266103  0.04985085    -0.54100
O2192       O  0.99305936  0.12674015  0.06327812    -0.73500
C2193       C  0.52699803  0.12020278  0.07864489     0.98800
O2194       O  0.62423237  0.04378436  0.05158000    -0.62300
O2195       O  0.48217874  0.45536126  0.06740723    -0.57100
O2196       O  0.56335627  0.02218388  0.08169635    -0.93800
O2197       O  0.50284308  0.01826018  0.09771411    -0.92200
O2198       O  0.51943054  0.43143532  0.49889780    -0.92600
O2199       O  0.60307919  0.96361240  0.48925860    -0.91400
C2200       C  0.53885753  0.02390004  0.10301429     1.17700
H2201       H  0.95857688  0.46798317  0.49554572     0.33600
H2202       H  0.59319138  0.03237092  0.47722916     0.44500
H2203       H  0.49063480  0.06362502  0.07357206     0.38000
H2204       H  0.95897789  0.08543398  0.45556424     0.34500
H2205       H  0.57392049  0.97334926  0.41422231     0.26300
H2206       H  0.04337183  0.13222001  0.44412718     0.32200
H2207       H  0.00792203  0.15280555  0.00591561     0.38100
H2208       H  0.50266293  0.42121744  0.48381117     0.32600
H2209       H  0.47283487  0.44055875  0.05200014     0.31500
H2210       H  0.89927108  0.52893898  0.08249435     0.33100
H2211       H  0.88567333  0.09862270  0.03621854     0.32100
H2212       H  0.61073410  0.97755017  0.50602097     0.36100
H2213       H  0.62597364  0.04895800  0.07359370     0.28800
H2214       H  0.87363240  0.03217770  0.43670823     0.33100
H2215       H  0.90653900  0.14164662  0.99955964     0.35900
H2216       H  0.51033235  0.45378946  0.06634673     0.28500
H2217       H  0.62901964  0.02305085  0.54974460     0.41400
H2218       H  0.57428526  0.06629276  0.39122563     0.31500
H2219       H  0.59542699  0.00103638  0.42887360     0.39100
H2220       H  0.90587922  0.12472419  0.05474722     0.30900
H2221       H  0.04473981  0.11776505  0.41140077     0.31000
H2222       H  0.89254645  0.06440436  0.44142814     0.31300
N2223       N  0.66760544  0.19310219  0.27004583    -0.03200
C2224       C  0.70258781  0.18258874  0.26034458    -0.00600
C2225       C  0.71296629  0.20018318  0.23523817    -0.23500
C2226       C  0.68420968  0.22150139  0.23030772    -0.23700
C2227       C  0.65635111  0.21692726  0.25250986    -0.00700
H2228       H  0.73681812  0.19594074  0.22001500     0.13000
H2229       H  0.68302462  0.23757191  0.21152037     0.13100
N2230       N  0.66888894  0.13880764  0.47627628    -0.03200
C2231       C  0.65788541  0.11296419  0.99360669    -0.00600
C2232       C  0.68649767  0.10810945  0.01488899    -0.23500
C2233       C  0.71360920  0.13118197  0.01131665    -0.23700
C2234       C  0.70159959  0.15005535  0.98786623    -0.00700
H2235       H  0.68691195  0.09045265  0.03221952     0.13000
H2236       H  0.73767591  0.13524708  0.02622697     0.13100
Zr2237     Zr  0.69440126  0.25351375  0.01435803     2.17500
O2238       O  0.63075343  0.24674339  0.99318592    -0.51100
O2239       O  0.69773688  0.21877084  0.06081783    -0.74300
O2240       O  0.69049079  0.20150755  0.99848275    -0.81100
O2241       O  0.64947941  0.32166228  0.05355675    -0.82800
O2242       O  0.74818122  0.19313980  0.47522038    -0.78500
O2243       O  0.64162142  0.27092862  0.04395361    -0.90100
O2244       O  0.75638088  0.22448789  0.08137986    -0.76100
O2245       O  0.75843056  0.23651998  0.01629072    -0.85500
O2246       O  0.72172019  0.28743848  0.05043571    -0.85200
O2247       O  0.71718005  0.25996733  0.46339899    -0.72000
O2248       O  0.68712041  0.30427311  0.99294759    -0.84100
Zr2249     Zr  0.80107933  0.32980024  0.48221000     2.26400
Zr2250     Zr  0.78309750  0.24434325  0.46614205     2.06300
Zr2251     Zr  0.71420340  0.33850406  0.03014706     2.10000
Zr2252     Zr  0.78549762  0.26938578  0.05324282     1.78800
O2253       O  0.66691665  0.37900381  0.02680727    -0.92900
O2254       O  0.83680916  0.23195339  0.05277459    -0.40700
O2255       O  0.77925268  0.32134887  0.03346757    -0.77400
O2256       O  0.81113505  0.27876627  0.50298980    -0.96100
O2257       O  0.77511945  0.29532845  0.44576052    -0.89400
O2258       O  0.73616672  0.34529440  0.47920557    -0.92200
C2259       C  0.72334299  0.21094692  0.08092431     1.01600
C2260       C  0.63009279  0.29592405  0.05577117     1.14500
C2261       C  0.71450592  0.18409572  0.48509731     1.05300
O2262       O  0.83444715  0.20761068  0.47266148    -0.94400
O2263       O  0.84499723  0.26339583  0.44063954    -0.90100
O2264       O  0.85193797  0.31422441  0.44941774    -0.83200
C2265       C  0.86324513  0.28941292  0.43721302     1.11900
O2266       O  0.65502477  0.29102719  0.41636273    -0.96300
Zr2267     Zr  0.71073415  0.31158618  0.44250474     1.88900
O2268       O  0.79602969  0.36578848  0.43728080    -0.73000
O2269       O  0.77179844  0.22474690  0.41487111    -0.52200
O2270       O  0.71890973  0.29101593  0.39108254    -0.96900
O2271       O  0.65835997  0.34793052  0.44365775    -0.54100
O2272       O  0.74041714  0.35614983  0.41297136    -0.73500
C2273       C  0.77204131  0.37175282  0.41546876     0.98800
O2274       O  0.86356111  0.34791944  0.49916303    -0.62300
O2275       O  0.72992320  0.35423236  0.08183254    -0.57100
O2276       O  0.80732597  0.37672062  0.50935456    -0.93800
O2277       O  0.74994314  0.38897357  0.01865496    -0.92200
O2278       O  0.77371429  0.28417738  0.10621488    -0.92600
O2279       O  0.84315053  0.29280997  0.07395576    -0.91400
C2280       C  0.78448720  0.39681056  0.00980943     1.17700
H2281       H  0.70940296  0.28548031  0.07018683     0.33600
H2282       H  0.83826571  0.27519221  0.50376473     0.44500
H2283       H  0.73294699  0.36579662  0.47147885     0.38000
H2284       H  0.70347092  0.24605994  0.45018561     0.34500
H2285       H  0.84760838  0.23249398  0.07357775     0.26300
H2286       H  0.74384198  0.22186191  0.41339539     0.32200
H2287       H  0.73488962  0.30616175  0.38005199     0.38100
H2288       H  0.79645210  0.27753058  0.11769957     0.32600
H2289       H  0.75809990  0.35607967  0.08196655     0.31500
H2290       H  0.67326895  0.39008737  0.00769141     0.33100
H2291       H  0.63767104  0.33793026  0.45553935     0.32100
H2292       H  0.83772084  0.31501058  0.07446992     0.36100
H2293       H  0.87658905  0.35826178  0.99288770     0.28800
H2294       H  0.62270012  0.22565576  0.99840870     0.33100
H2295       H  0.63701205  0.28560170  0.43302325     0.35900
H2296       H  0.72079499  0.37556779  0.08241560     0.28500
H2297       H  0.87487778  0.35911520  0.48159864     0.41400
H2298       H  0.84132384  0.20129119  0.45159385     0.31500
H2299       H  0.82381506  0.21184859  0.05144891     0.39100
H2300       H  0.64879009  0.34870465  0.42240352     0.30900
H2301       H  0.77752215  0.24222770  0.40119622     0.31000
H2302       H  0.63454515  0.24684171  0.97077768     0.31300
N2303       N  0.83347225  0.39293186  0.23054511    -0.03200
C2304       C  0.80397759  0.40812478  0.24446751    -0.00600
C2305       C  0.80115459  0.39758549  0.27414527    -0.23500
C2306       C  0.82927604  0.37551429  0.27780774    -0.23700
C2307       C  0.84932294  0.37284483  0.25029704    -0.00700
H2308       H  0.78242645  0.40622735  0.29184583     0.13000
H2309       H  0.83509062  0.36337199  0.29883103     0.13100
N2310       N  0.82620668  0.44362268  0.01813441    -0.03200
C2311       C  0.79532844  0.42872893  0.50399086    -0.00600
C2312       C  0.79691130  0.43865124  0.47403334    -0.23500
C2313       C  0.82673675  0.45951741  0.47176519    -0.23700
C2314       C  0.84389450  0.46228844  0.50035785    -0.00700
H2315       H  0.78102670  0.42930019  0.45501820     0.13000
H2316       H  0.83636333  0.47003872  0.45067095     0.13100
C2317       C  0.76547413  0.41916989  0.11135246    -0.17600
C2318       C  0.76667277  0.40404484  0.13912717    -0.19800
C2319       C  0.80195745  0.39835655  0.15264279     0.20900
C2320       C  0.83633920  0.40613709  0.13771579    -0.02700
C2321       C  0.83507108  0.41803748  0.10843908    -0.05700
C2322       C  0.79950273  0.42579606  0.09593090     0.21200
C2323       C  0.86924585  0.42280333  0.09193297     0.19300
C2324       C  0.90448445  0.41779499  0.10599376    -0.17200
C2325       C  0.90567698  0.40976830  0.13685896    -0.19400
C2326       C  0.87167460  0.40393765  0.15280979     0.20800
C2327       C  0.87158236  0.39837722  0.18408738    -0.32500
C2328       C  0.83699414  0.39147955  0.19859036     0.01500
C2329       C  0.80328198  0.38810527  0.18219137    -0.23800
C2330       C  0.79851269  0.43917119  0.06765057    -0.28400
C2331       C  0.83147938  0.43999155  0.04972607     0.07200
C2332       C  0.86701228  0.43199097  0.06159129    -0.27000
H2333       H  0.73812031  0.42508878  0.10160400     0.11900
H2334       H  0.74025126  0.39868637  0.15096022     0.13000
H2335       H  0.93083680  0.42138758  0.09356353     0.12100
H2336       H  0.93288324  0.40815168  0.14823873     0.11400
H2337       H  0.89745177  0.40126951  0.19725989     0.16700
H2338       H  0.77699517  0.38214296  0.19403549     0.12700
H2339       H  0.77131795  0.44572526  0.05791057     0.15500
H2340       H  0.89217928  0.43179698  0.04714036     0.15300
C2341       C  0.63229964  0.21485133  0.40333995    -0.17600
C2342       C  0.63464785  0.22338220  0.37278241    -0.19800
C2343       C  0.63677988  0.20085892  0.35007744     0.20900
C2344       C  0.63374597  0.16966811  0.35773229    -0.02700
C2345       C  0.63497373  0.16119541  0.38832179    -0.05700
C2346       C  0.63490407  0.18397145  0.41119692     0.21200
C2347       C  0.64113248  0.13029476  0.39579817     0.19300
C2348       C  0.64034792  0.10769608  0.37313710    -0.17200
C2349       C  0.63563467  0.11597484  0.34273627    -0.19400
C2350       C  0.63476116  0.14692163  0.33484414     0.20800
C2351       C  0.64007878  0.15556118  0.30471145    -0.32500
C2352       C  0.64990455  0.18567000  0.29817659     0.01500
C2353       C  0.64662278  0.20853516  0.32040988    -0.23800
C2354       C  0.64172261  0.17570208  0.44119149    -0.28400
C2355       C  0.65295408  0.14596807  0.44764095     0.07200
C2356       C  0.65165174  0.12310470  0.42531692    -0.27000
H2357       H  0.63212748  0.23232127  0.42083939     0.11900
H2358       H  0.63697337  0.24740782  0.36709872     0.13000
H2359       H  0.64514859  0.08390118  0.37872942     0.12100
H2360       H  0.63652296  0.09849451  0.32527566     0.11400
H2361       H  0.64055790  0.13856798  0.28699121     0.16700
H2362       H  0.65422029  0.23196393  0.31489282     0.12700
H2363       H  0.64121790  0.19270799  0.45895773     0.15500
H2364       H  0.66049007  0.10002210  0.43082251     0.15300
C2365       C  0.60254701  0.41938360  0.31698138    -0.17600
C2366       C  0.64222942  0.41713521  0.31698469    -0.19800
C2367       C  0.66195346  0.41571906  0.34476269     0.20900
C2368       C  0.64167471  0.41484963  0.37269151    -0.02700
C2369       C  0.60187643  0.41406425  0.37246670    -0.05700
C2370       C  0.58223048  0.41749766  0.34460617     0.21200
C2371       C  0.58171935  0.40979820  0.40012614     0.19300
C2372       C  0.60124790  0.40878047  0.42797179    -0.17200
C2373       C  0.64073414  0.41251844  0.42841886    -0.19400
C2374       C  0.66113465  0.41465883  0.40086056     0.20800
C2375       C  0.70069837  0.41615891  0.40087995    -0.32500
C2376       C  0.72081570  0.41596298  0.37319093     0.01500
C2377       C  0.70159767  0.41542477  0.34522828    -0.23800
C2378       C  0.54258092  0.41873913  0.34504707    -0.28400
C2379       C  0.52274315  0.41271852  0.37222643     0.07200
C2380       C  0.54228391  0.40703590  0.39937347    -0.27000
H2381       H  0.58772239  0.42164274  0.29540681     0.11900
H2382       H  0.65755898  0.41761868  0.29540027     0.13000
H2383       H  0.58590501  0.40591747  0.44936554     0.12100
H2384       H  0.65543858  0.41243267  0.45017537     0.11400
H2385       H  0.71601758  0.41699306  0.42234985     0.16700
H2386       H  0.71762408  0.41506023  0.32396540     0.12700
H2387       H  0.52704756  0.42385926  0.32431635     0.15500
H2388       H  0.52652499  0.40141013  0.42001835     0.15300
C2389       C  0.89520361  0.22198194  0.13052337    -0.17600
C2390       C  0.85555916  0.22165769  0.13312631    -0.19800
C2391       C  0.83533344  0.19426480  0.12906942     0.20900
C2392       C  0.85512005  0.16668895  0.12404311    -0.02700
C2393       C  0.89495405  0.16659803  0.12444720    -0.05700
C2394       C  0.91505372  0.19450005  0.12674540     0.21200
C2395       C  0.91465283  0.13863088  0.12223693     0.19300
C2396       C  0.89446448  0.11114957  0.11876983    -0.17200
C2397       C  0.85489706  0.11156175  0.11584895    -0.19400
C2398       C  0.83510234  0.13920994  0.11851769     0.20800
C2399       C  0.79558115  0.13993899  0.11616301    -0.32500
C2400       C  0.77595032  0.16694889  0.12259658     0.01500
C2401       C  0.79566653  0.19385431  0.12971456    -0.23800
C2402       C  0.95466490  0.19431175  0.12528962    -0.28400
C2403       C  0.97418383  0.16650518  0.12368739     0.07200
C2404       C  0.95425051  0.13875476  0.12299081    -0.27000
H2405       H  0.91039349  0.24353173  0.13252222     0.11900
H2406       H  0.84074248  0.24291907  0.13723727     0.13000
H2407       H  0.90937638  0.08954907  0.11710108     0.12100
H2408       H  0.83978964  0.09027589  0.11199142     0.11400
H2409       H  0.77981826  0.11938063  0.11033674     0.16700
H2410       H  0.77997081  0.21442375  0.13533003     0.12700
H2411       H  0.97039349  0.21568463  0.12566099     0.15500
H2412       H  0.96970409  0.11734789  0.12249796     0.15300
C2413       C  0.98461911  0.18217166  0.38598856    -0.17600
C2414       C  0.98570922  0.15349497  0.37266617    -0.19800
C2415       C  0.95160379  0.13767846  0.36749167     0.20900
C2416       C  0.91603683  0.15083823  0.37448789    -0.02700
C2417       C  0.91490970  0.18078286  0.38484030    -0.05700
C2418       C  0.94937664  0.19596229  0.39156336     0.21200
C2419       C  0.87959410  0.19593263  0.38732788     0.19300
C2420       C  0.84550554  0.17970649  0.38264628    -0.17200
C2421       C  0.84660008  0.14854582  0.37573068    -0.19400
C2422       C  0.88177595  0.13415926  0.37089475     0.20800
C2423       C  0.88379096  0.10339949  0.36284950    -0.32500
C2424       C  0.91929755  0.09087712  0.35550653     0.01500
C2425       C  0.95256922  0.10849099  0.35619609    -0.23800
C2426       C  0.94816813  0.22559857  0.40163762    -0.28400
C2427       C  0.91428036  0.24197678  0.39944627     0.07200
C2428       C  0.87969782  0.22732477  0.39273596    -0.27000
H2429       H  0.01116160  0.19411420  0.39055436     0.11900
H2430       H  0.01308786  0.14339886  0.36715532     0.13000
H2431       H  0.81818848  0.19094435  0.38457734     0.12100
H2432       H  0.82011314  0.13601982  0.37322539     0.11400
H2433       H  0.85834101  0.08927232  0.36281814     0.16700
H2434       H  0.97976724  0.09848198  0.34987231     0.12700
H2435       H  0.97454800  0.23734322  0.40730235     0.15500
H2436       H  0.85372874  0.24035332  0.39014116     0.15300
C2437       C  0.51617614  0.40052412  0.12451657    -0.17600
C2438       C  0.51777702  0.42884121  0.13858435    -0.19800
C2439       C  0.55330585  0.44239808  0.14392183     0.20900
C2440       C  0.58746417  0.42660813  0.13764985    -0.02700
C2441       C  0.58569434  0.39696506  0.12654420    -0.05700
C2442       C  0.54999594  0.38483820  0.11829848     0.21200
C2443       C  0.61958006  0.38012818  0.12201807     0.19300
C2444       C  0.65501414  0.39375151  0.12801030    -0.17200
C2445       C  0.65686338  0.42476799  0.13548217    -0.19400
C2446       C  0.62313740  0.44141027  0.13965571     0.20800
C2447       C  0.62378083  0.47301742  0.14289873    -0.32500
C2448       C  0.58700299  0.98996716  0.15030293     0.01500
C2449       C  0.55519116  0.47271727  0.15189567    -0.23800
C2450       C  0.54866822  0.35712124  0.10386940    -0.28400
C2451       C  0.58132626  0.33909752  0.10205162     0.07200
C2452       C  0.61693084  0.35020069  0.11126035    -0.27000
H2453       H  0.48868121  0.39096425  0.11836912     0.11900
H2454       H  0.49150993  0.44110653  0.14297834     0.13000
H2455       H  0.68110730  0.38091303  0.12534036     0.12100
H2456       H  0.68439831  0.43579370  0.13772173     0.11400
H2457       H  0.65007084  0.48555151  0.13907906     0.16700
H2458       H  0.52908713  0.48522627  0.15642289     0.12700
H2459       H  0.52139779  0.34810341  0.09630238     0.15500
H2460       H  0.64189475  0.33570529  0.11033277     0.15300
N2461       N  0.57201451  0.30735830  0.59442330    -0.03200
C2462       C  0.54213772  0.29211647  0.60798932    -0.00600
C2463       C  0.54138656  0.26301970  0.59567308    -0.23500
C2464       C  0.57090061  0.26112526  0.57445723    -0.23700
C2465       C  0.59016884  0.28906114  0.57396006    -0.00700
H2466       H  0.52426347  0.24400070  0.60374728     0.13000
H2467       H  0.57892131  0.24058912  0.56223323     0.13100
N2468       N  0.58533118  0.02004030  0.64604034    -0.03200
C2469       C  0.55635551  0.03356348  0.63013998    -0.00600
C2470       C  0.55457173  0.06375163  0.63920573    -0.23500
C2471       C  0.58292060  0.06822360  0.66095203    -0.23700
C2472       C  0.60209830  0.04065251  0.66493969    -0.00700
H2473       H  0.53630006  0.08117039  0.62980760     0.13000
H2474       H  0.58951788  0.08979017  0.67191796     0.13100
Zr2475     Zr  0.69612838  0.07784239  0.73248262     2.17500
O2476       O  0.62943285  0.08509676  0.74688179    -0.51100
O2477       O  0.70137367  0.11487520  0.68792691    -0.74300
O2478       O  0.68849273  0.12667763  0.75558293    -0.81100
O2479       O  0.65651200  0.01157325  0.68869898    -0.82800
O2480       O  0.74764201  0.13823613  0.77332745    -0.78500
O2481       O  0.64621591  0.06180756  0.69901655    -0.90100
O2482       O  0.75915084  0.10841745  0.66593050    -0.76100
O2483       O  0.76030137  0.09585407  0.73271717    -0.85500
O2484       O  0.72594202  0.04515088  0.69631675    -0.85200
O2485       O  0.71833823  0.07063655  0.78473761    -0.72000
O2486       O  0.68815291  0.02637809  0.75248692    -0.84100
Zr2487     Zr  0.80585575  0.00345064  0.76540900     2.26400
Zr2488     Zr  0.78385743  0.08797011  0.78396578     2.06300
Zr2489     Zr  0.71927556  0.49185209  0.71606399     2.10000
Zr2490     Zr  0.78937061  0.06440586  0.69533876     1.78800
O2491       O  0.66770613  0.45483695  0.72227600    -0.92900
O2492       O  0.84009318  0.10255552  0.69092978    -0.40700
O2493       O  0.78303273  0.01175910  0.71367934    -0.77400
O2494       O  0.81432787  0.05563366  0.74652467    -0.96100
O2495       O  0.77695501  0.03610907  0.80228313    -0.89400
O2496       O  0.74255731  0.48635601  0.76771430    -0.92200
C2497       C  0.72647402  0.12246344  0.66712505     1.01600
C2498       C  0.63698228  0.03695880  0.68561809     1.14500
C2499       C  0.71311696  0.14599912  0.76464529     1.05300
O2500       O  0.83176677  0.12844188  0.78444999    -0.94400
O2501       O  0.84675624  0.06974974  0.80848402    -0.90100
O2502       O  0.85914181  0.02120497  0.79332142    -0.83200
C2503       C  0.86761309  0.04484760  0.80877223     1.11900
O2504       O  0.65452431  0.03664267  0.82787394    -0.96300
Zr2505     Zr  0.71289693  0.01835214  0.80379769     1.88900
O2506       O  0.80047445  0.46855846  0.81258621    -0.73000
O2507       O  0.76808083  0.10144008  0.83666721    -0.52200
O2508       O  0.71786001  0.03608823  0.85647359    -0.96900
O2509       O  0.66044832  0.48309481  0.80020366    -0.54100
O2510       O  0.74236286  0.47535695  0.83433390    -0.73500
C2511       C  0.77504611  0.46136823  0.83333744     0.98800
O2512       O  0.87160762  0.98551779  0.76056405    -0.62300
O2513       O  0.73360818  0.47142058  0.66550585    -0.57100
O2514       O  0.81448154  0.45358560  0.74675206    -0.93800
O2515       O  0.75544318  0.44166830  0.72871636    -0.92200
O2516       O  0.78236158  0.04305157  0.64419642    -0.92600
O2517       O  0.85124077  0.04714783  0.67665646    -0.91400
C2518       C  0.78931268  0.43405965  0.73918717     1.17700
H2519       H  0.71486329  0.04744574  0.67623677     0.33600
H2520       H  0.84130733  0.06031269  0.74611360     0.44500
H2521       H  0.73996537  0.46573327  0.77528504     0.38000
H2522       H  0.70346195  0.08367770  0.79792333     0.34500
H2523       H  0.82739852  0.12158772  0.68430911     0.26300
H2524       H  0.74120031  0.09516706  0.83985605     0.32200
H2525       H  0.74299913  0.02880867  0.86361510     0.38100
H2526       H  0.79160451  0.02175443  0.64596588     0.32600
H2527       H  0.72176048  0.48600662  0.65111210     0.31500
H2528       H  0.66872008  0.44223979  0.70346427     0.33100
H2529       H  0.66881959  0.46850282  0.78426787     0.32100
H2530       H  0.85953377  0.03179459  0.69185652     0.36100
H2531       H  0.87111992  0.96322682  0.76462470     0.28800
H2532       H  0.62285751  0.10628310  0.74096760     0.33100
H2533       H  0.63855185  0.04358424  0.81063007     0.35900
H2534       H  0.75736867  0.96461797  0.66603062     0.28500
H2535       H  0.87847443  0.98761119  0.73866100     0.41400
H2536       H  0.82983342  0.13812595  0.76405692     0.31500
H2537       H  0.84795591  0.10677777  0.71223479     0.39100
H2538       H  0.63951827  0.49448385  0.79027314     0.30900
H2539       H  0.76732896  0.12405408  0.83669637     0.31000
H2540       H  0.62917010  0.08497746  0.76950836     0.31300
N2541       N  0.92558335  0.27086265  0.90443846    -0.03200
C2542       C  0.90636579  0.28985859  0.92362328    -0.00600
C2543       C  0.92484080  0.31813953  0.92215509    -0.23500
C2544       C  0.95448284  0.31602442  0.90118745    -0.23700
C2545       C  0.95454117  0.28644352  0.89019335    -0.00700
H2546       H  0.91604392  0.33903129  0.93339697     0.13000
H2547       H  0.97104113  0.33503542  0.89233393     0.13100
N2548       N  0.92352853  0.05834903  0.84658057    -0.03200
C2549       C  0.95089943  0.04234381  0.86199576    -0.00600
C2550       C  0.95654921  0.51590275  0.84636848    -0.23500
C2551       C  0.92652569  0.51428809  0.82589225    -0.25700
C2552       C  0.90295495  0.03918575  0.82850904    -0.00700
H2553       H  0.97462681  0.49703603  0.85298043     0.13000
H2554       H  0.91896646  0.49418361  0.81277148     0.13100
N2555       N  0.73646769  0.16802001  0.62502912    -0.03200
C2556       C  0.71479385  0.14781907  0.64281508    -0.00600
C2557       C  0.67707159  0.15359056  0.63537699    -0.23500
C2558       C  0.67600613  0.17657364  0.61312225    -0.23700
C2559       C  0.71307455  0.18593264  0.60669501    -0.00700
H2560       H  0.65252875  0.14173544  0.64476054     0.13000
H2561       H  0.65044456  0.18547461  0.60264633     0.13100
N2562       N  0.51424936  0.16059479  0.62240816    -0.03200
C2563       C  0.53561076  0.17773194  0.64305731    -0.00600
C2564       C  0.57338883  0.17022650  0.63722441    -0.23500
C2565       C  0.57460610  0.14849425  0.61366812    -0.23700
C2566       C  0.53763324  0.14255314  0.60407858    -0.00700
H2567       H  0.59786003  0.17934162  0.64920471     0.13000
H2568       H  0.60017276  0.13821943  0.60436415     0.13100
Zr2569     Zr  0.94438330  0.30312239  0.78827999     2.17500
O2570       O  0.88224970  0.28052781  0.80005267    -0.51100
O2571       O  0.94673995  0.34975118  0.82314776    -0.74300
O2572       O  0.93977876  0.28435191  0.83889444    -0.81100
O2573       O  0.90275853  0.34365237  0.72016053    -0.82800
O2574       O  0.00114387  0.27166041  0.84968753    -0.78500
O2575       O  0.89383277  0.33457663  0.77079601    -0.90100
O2576       O  0.50303532  0.37039957  0.81362616    -0.76100
O2577       O  0.00810260  0.30676931  0.80566661    -0.85500
O2578       O  0.97211982  0.33917161  0.75408560    -0.85200
O2579       O  0.97080569  0.25189913  0.78361521    -0.72000
O2580       O  0.93720445  0.28030209  0.73786108    -0.84100
Zr2581     Zr  0.55068050  0.26961199  0.71011470     2.26400
Zr2582     Zr  0.03591653  0.25693204  0.79996887     2.06300
Zr2583     Zr  0.96543313  0.31718023  0.70372096     2.10000
Zr2584     Zr  0.53108270  0.34167412  0.76839338     1.78800
O2585       O  0.91321622  0.31136603  0.66762920    -0.92900
O2586       O  0.58309925  0.34172251  0.80536707    -0.40700
O2587       O  0.52413276  0.32047375  0.71697982    -0.77400
O2588       O  0.55909230  0.29141250  0.76085396    -0.96100
O2589       O  0.52350369  0.23311080  0.74419145    -0.89400
O2590       O  0.48597549  0.26674086  0.69395897    -0.92200
C2591       C  0.97188899  0.37069871  0.83014366     1.01600
C2592       C  0.88350700  0.34692938  0.74582363     1.14500
C2593       C  0.96650533  0.27963451  0.85780669     1.05300
O2594       O  0.58208691  0.26084551  0.83171731    -0.94400
O2595       O  0.59358440  0.23086608  0.77740692    -0.90100
O2596       O  0.60670101  0.24330813  0.72802170    -0.83200
C2597       C  0.61564973  0.23029769  0.75313433     1.11900
O2598       O  0.91078718  0.20574455  0.75783667    -0.96300
Zr2599     Zr  0.96556848  0.22955290  0.73269375     1.88900
O2600       O  0.54780938  0.22263885  0.67618439    -0.73000
O2601       O  0.02510970  0.20718597  0.82337335    -0.52200
O2602       O  0.97926218  0.17872355  0.75263565    -0.96900
O2603       O  0.91010798  0.22261671  0.70032780    -0.54100
O2604       O  0.99415518  0.19987479  0.68807017    -0.73500
C2605       C  0.52317580  0.20156352  0.66862506     0.98800
O2606       O  0.60885253  0.29333300  0.69017572    -0.62300
O2607       O  0.47001611  0.36851641  0.68064263    -0.57100
O2608       O  0.55481753  0.28881631  0.65952337    -0.93800
O2609       O  0.49568520  0.30757141  0.64912972    -0.92200
O2610       O  0.51862100  0.39416065  0.75279027    -0.92600
O2611       O  0.58636345  0.36448864  0.74295205    -0.91400
C2612       C  0.52959417  0.29762212  0.64077549     1.17700
H2613       H  0.96039714  0.35902818  0.75556888     0.33600
H2614       H  0.58619958  0.29290736  0.76509558     0.44500
H2615       H  0.48350273  0.25925176  0.67325571     0.38000
H2616       H  0.95762957  0.23863896  0.79786510     0.34500
H2617       H  0.60104003  0.35796235  0.79879518     0.26300
H2618       H  0.03382427  0.19228035  0.80782602     0.32200
H2619       H  0.00692492  0.17570951  0.74913462     0.38100
H2620       H  0.53451429  0.40695497  0.76642596     0.32600
H2621       H  0.46379866  0.38201128  0.69814426     0.31500
H2622       H  0.91347318  0.28947266  0.66194063     0.33100
H2623       H  0.91449100  0.20285893  0.68986137     0.32100
H2624       H  0.57854762  0.36709305  0.72137223     0.36100
H2625       H  0.62299859  0.30043857  0.70840714     0.28800
H2626       H  0.86934107  0.27828043  0.78006095     0.33100
H2627       H  0.89389104  0.22299438  0.76337518     0.35900
H2628       H  0.49808354  0.37013969  0.67844626     0.28500
H2629       H  0.62442117  0.27649349  0.68161105     0.41400
H2630       H  0.57379867  0.27772056  0.84526683     0.31500
H2631       H  0.57181419  0.34944007  0.82466761     0.39100
H2632       H  0.91353208  0.23828010  0.68425075     0.30900
H2633       H  0.04458643  0.20605908  0.83965700     0.31000
H2634       H  0.86771395  0.29658661  0.81096514     0.31300
N2635       N  0.76336334  0.41650402  0.87525084    -0.03200
C2636       C  0.78626847  0.39787146  0.89322226    -0.00600
C2637       C  0.82362708  0.40648086  0.88703820    -0.23500
C2638       C  0.82336420  0.42956851  0.86495363    -0.23700
C2639       C  0.78587562  0.43608705  0.85756947    -0.00700
H2640       H  0.84881725  0.39653398  0.89712694     0.13000
H2641       H  0.84824303  0.44068752  0.85526486     0.13100
N2642       N  0.98298469  0.41248446  0.87569215    -0.03200
C2643       C  0.96069483  0.39585565  0.85511157    -0.00600
C2644       C  0.92350346  0.40537285  0.86042271    -0.23500
C2645       C  0.92368152  0.42770519  0.88351684    -0.23700
C2646       C  0.96080616  0.43213639  0.89348907    -0.00700
H2647       H  0.89852743  0.39729622  0.84835661     0.13000
H2648       H  0.89894297  0.43955392  0.89230313     0.13100
Zr2649     Zr  0.94216357  0.02569288  0.96058229     2.17500
O2650       O  0.88145187  0.04397689  0.94043886    -0.51100
O2651       O  0.94747587  0.47734840  0.92682911    -0.74300
O2652       O  0.93867005  0.05239646  0.91332601    -0.81100
O2653       O  0.89913401  0.48493861  0.53096787    -0.82800
O2654       O  0.00093575  0.05497504  0.90060512    -0.78500
O2655       O  0.89232250  0.49404550  0.97907123    -0.90100
O2656       O  0.50596648  0.45365627  0.93152011    -0.76100
O2657       O  0.00634478  0.02034233  0.94424539    -0.85500
O2658       O  0.97028259  0.48695300  0.99724136    -0.85200
O2659       O  0.97053347  0.07642498  0.96664622    -0.72000
O2660       O  0.93875023  0.04327035  0.51505416    -0.84100
Zr2661     Zr  0.55896090  0.05313508  0.53386918     2.26400
Zr2662     Zr  0.03549456  0.06983352  0.95023615     2.06300
Zr2663     Zr  0.96336560  0.50911299  0.54788065     2.10000
Zr2664     Zr  0.53931220  0.97980601  0.97828885     1.78800
O2665       O  0.91480116  0.51786269  0.58688295    -0.92900
O2666       O  0.58931963  0.97767434  0.93929378    -0.40700
O2667       O  0.53569494  0.00112981  0.52610384    -0.77400
O2668       O  0.56597058  0.03102670  0.98553212    -0.96100
O2669       O  0.53026646  0.08905207  0.50044345    -0.89400
O2670       O  0.49429883  0.05454224  0.55091070    -0.92200
C2671       C  0.97198113  0.45610058  0.91954050     1.01600
C2672       C  0.88104461  0.48070540  0.50498135     1.14500
C2673       C  0.96498488  0.05125694  0.89341379     1.05300
O2674       O  0.58451807  0.05780842  0.91228732    -0.94400
O2675       O  0.59842854  0.09324181  0.96848046    -0.90100
O2676       O  0.61332321  0.08021612  0.51448432    -0.83200
C2677       C  0.62034375  0.09483806  0.99265631     1.11900
O2678       O  0.91126592  0.11574609  0.49679551    -0.96300
Zr2679     Zr  0.96747094  0.09384623  0.52093892     1.88900
O2680       O  0.55249325  0.09846924  0.57014874    -0.73000
O2681       O  0.02982099  0.11880733  0.92445283    -0.52200
O2682       O  0.98278559  0.14460245  0.50137687    -0.96900
O2683       O  0.91628918  0.09968272  0.55806242    -0.54100
O2684       O  0.99640158  0.12293152  0.56587745    -0.73500
C2685       C  0.52739433  0.11924078  0.57754193     0.98800
O2686       O  0.62480263  0.04542989  0.55023212    -0.62300
O2687       O  0.48045128  0.45679822  0.56696176    -0.57100
O2688       O  0.56496713  0.02104715  0.57816759    -0.93800
O2689       O  0.50483922  0.01607252  0.59465852    -0.92200
O2690       O  0.53170170  0.43098574  0.99443824    -0.92600
O2691       O  0.59770643  0.95845328  0.99933314    -0.91400
C2692       C  0.54080028  0.02197383  0.59979589     1.17700
H2693       H  0.95705998  0.46761012  0.99550744     0.33600
H2694       H  0.59296185  0.03029089  0.98108031     0.44500
H2695       H  0.49141915  0.06212653  0.57151995     0.38000
H2696       H  0.95862360  0.09042716  0.95247270     0.34500
H2697       H  0.57573753  0.97450759  0.91973362     0.26300
H2698       H  0.03918176  0.13395974  0.93951568     0.32200
H2699       H  0.96345415  0.15826404  0.51063931     0.38100
H2700       H  0.50871561  0.42235710  0.98450839     0.32600
H2701       H  0.46449872  0.44257882  0.55483616     0.31500
H2702       H  0.89531265  0.53050744  0.57660483     0.33100
H2703       H  0.89561865  0.08585195  0.55114946     0.32100
H2704       H  0.61727637  0.97463671  0.99660629     0.36100
H2705       H  0.62577677  0.05117927  0.57213983     0.28800
H2706       H  0.86507532  0.04833206  0.95842911     0.33100
H2707       H  0.89340238  0.09831432  0.49437775     0.35900
H2708       H  0.50688857  0.45259660  0.56012452     0.28500
H2709       H  0.62765289  0.02133924  0.05049906     0.41400
H2710       H  0.57560925  0.03921137  0.90149479     0.31500
H2711       H  0.59973059  0.99866742  0.93776686     0.39100
H2712       H  0.90630069  0.12059657  0.55499722     0.30900
H2713       H  0.04994496  0.11826052  0.90850035     0.31000
H2714       H  0.86939207  0.02621566  0.93017917     0.31300
N2715       N  0.66390333  0.18896518  0.76949060    -0.03200
C2716       C  0.69950209  0.17879426  0.76103149    -0.00600
C2717       C  0.71177576  0.19726247  0.73713610    -0.23500
C2718       C  0.68345646  0.21893872  0.73176777    -0.23700
C2719       C  0.65398645  0.21356157  0.75243789    -0.00700
H2720       H  0.73696096  0.19374155  0.72316456     0.13000
H2721       H  0.68392147  0.23607995  0.71392487     0.13100
N2722       N  0.66719590  0.13870550  0.97767746    -0.03200
C2723       C  0.65796018  0.11402281  0.49284482    -0.00600
C2724       C  0.68445723  0.11049630  0.51610613    -0.23500
C2725       C  0.71186542  0.13342122  0.51290126    -0.23700
C2726       C  0.70229740  0.15082070  0.48761925    -0.00700
H2727       H  0.68305249  0.09404735  0.53456926     0.13000
H2728       H  0.73414786  0.13858685  0.52919937     0.13100
Zr2729     Zr  0.69307800  0.25309898  0.51530809     2.17500
O2730       O  0.62745662  0.24159925  0.50067310    -0.51100
O2731       O  0.69780738  0.21806940  0.56145343    -0.74300
O2732       O  0.68980884  0.20221681  0.49622723    -0.81100
O2733       O  0.64614276  0.32004551  0.55322852    -0.82800
O2734       O  0.74755437  0.19217609  0.97511202    -0.78500
O2735       O  0.64032184  0.26889174  0.54557244    -0.90100
O2736       O  0.75539493  0.22605536  0.58280868    -0.76100
O2737       O  0.75764231  0.23725449  0.51703995    -0.85500
O2738       O  0.71956031  0.28777897  0.55114985    -0.85200
O2739       O  0.71926927  0.25933212  0.96257369    -0.72000
O2740       O  0.68380635  0.30366575  0.49341211    -0.84100
Zr2741     Zr  0.80462434  0.32774808  0.98216614     2.26400
Zr2742     Zr  0.78451760  0.24254184  0.96565657     2.06300
Zr2743     Zr  0.71042810  0.33859855  0.53030075     2.10000
Zr2744     Zr  0.78391111  0.27077595  0.55384119     1.78800
O2745       O  0.65974678  0.37658638  0.52991454    -0.92900
O2746       O  0.83508337  0.23322741  0.55606703    -0.40700
O2747       O  0.77582804  0.32229070  0.53346994    -0.77400
O2748       O  0.81236894  0.27654954  0.00264613    -0.96100
O2749       O  0.77830515  0.29379277  0.94529840    -0.89400
O2750       O  0.74029437  0.34400122  0.97918453    -0.92200
C2751       C  0.72316123  0.21135819  0.58209114     1.01600
C2752       C  0.62785935  0.29390746  0.55653977     1.14500
C2753       C  0.71426405  0.18331539  0.98607017     1.05300
O2754       O  0.83473380  0.20459299  0.97064680    -0.94400
O2755       O  0.84884989  0.25990438  0.94249362    -0.90100
O2756       O  0.85741470  0.31037072  0.95287155    -0.83200
C2757       C  0.86856640  0.28545452  0.94074583     1.11900
O2758       O  0.65817934  0.29151254  0.91536437    -0.96300
Zr2759     Zr  0.71423389  0.31108127  0.94200460     1.88900
O2760       O  0.80034646  0.36406403  0.93710451    -0.73000
O2761       O  0.76968998  0.22334792  0.91491099    -0.52200
O2762       O  0.72695358  0.29229622  0.89047929    -0.96900
O2763       O  0.66105498  0.34653913  0.94291121    -0.54100
O2764       O  0.74357954  0.35624589  0.91376981    -0.73500
C2765       C  0.77561697  0.37123056  0.91609445     0.98800
O2766       O  0.86882299  0.33813074  0.00128183    -0.62300
O2767       O  0.72721837  0.35584171  0.58127555    -0.57100
O2768       O  0.81038719  0.37751316  0.00368892    -0.93800
O2769       O  0.74579451  0.38935924  0.51805398    -0.92200
O2770       O  0.77520615  0.28608044  0.60711975    -0.92600
O2771       O  0.84008234  0.29483149  0.57626751    -0.91400
C2772       C  0.78139302  0.39669760  0.51187113     1.17700
H2773       H  0.70716771  0.28576305  0.57081151     0.33600
H2774       H  0.83946866  0.27230129  0.00385697     0.44500
H2775       H  0.73779549  0.36462490  0.97168472     0.38000
H2776       H  0.70551519  0.24560791  0.94925650     0.34500
H2777       H  0.82503874  0.21517852  0.54497822     0.26300
H2778       H  0.78858579  0.23341361  0.90132655     0.32200
H2779       H  0.72390372  0.26981516  0.89191940     0.38100
H2780       H  0.74889020  0.27989430  0.61274937     0.32600
H2781       H  0.74404474  0.33971592  0.58944636     0.31500
H2782       H  0.67018063  0.39406136  0.51812312     0.33100
H2783       H  0.66663331  0.35935593  0.96098385     0.32100
H2784       H  0.83277896  0.31643713  0.57963772     0.36100
H2785       H  0.87947799  0.32943057  0.50158119     0.28800
H2786       H  0.62247865  0.22011886  0.50672699     0.33100
H2787       H  0.65396113  0.30570636  0.89805643     0.35900
H2788       H  0.74468154  0.37317884  0.57720937     0.28500
H2789       H  0.86571875  0.34149165  0.02356152     0.41400
H2790       H  0.84820957  0.21030734  0.98967795     0.31500
H2791       H  0.85577333  0.24121923  0.54278591     0.39100
H2792       H  0.63841465  0.33451478  0.94935750     0.30900
H2793       H  0.77740250  0.20160635  0.91559097     0.31000
H2794       H  0.62754073  0.24161100  0.47805563     0.31300
N2795       N  0.82996650  0.38636073  0.73147448    -0.03200
C2796       C  0.80157944  0.40162947  0.74673786    -0.00600
C2797       C  0.80113012  0.39089787  0.77646007    -0.23500
C2798       C  0.82927439  0.36880330  0.77873640    -0.23700
C2799       C  0.84753966  0.36631312  0.75045325    -0.00700
H2800       H  0.78481088  0.40018315  0.79534772     0.13000
H2801       H  0.83701504  0.35714051  0.79962976     0.13100
N2802       N  0.82384475  0.44359254  0.51958395    -0.03200
C2803       C  0.79700844  0.42930474  0.00306215    -0.00600
C2804       C  0.79582222  0.44123270  0.97385709    -0.23500
C2805       C  0.82448706  0.46316761  0.97172482    -0.23700
C2806       C  0.84357829  0.46436392  0.99962491    -0.00700
H2807       H  0.77882980  0.43272756  0.95506050     0.13000
H2808       H  0.83212505  0.47543823  0.95107102     0.13100
C2809       C  0.76107177  0.42055233  0.61315114    -0.17600
C2810       C  0.76220360  0.40547950  0.64101707    -0.19800
C2811       C  0.79745661  0.39967227  0.65462655     0.20900
C2812       C  0.83184101  0.40837978  0.64025446    -0.02700
C2813       C  0.83071137  0.42099424  0.61120140    -0.05700
C2814       C  0.79515738  0.42767689  0.59797697     0.21200
C2815       C  0.86503584  0.42601451  0.59500066     0.19300
C2816       C  0.90020469  0.42107165  0.60922534    -0.17200
C2817       C  0.90128006  0.41156610  0.63962117    -0.19400
C2818       C  0.86723975  0.40474593  0.65507750     0.20800
C2819       C  0.86745676  0.39563811  0.68549703    -0.32500
C2820       C  0.83303590  0.38751382  0.69948170     0.01500
C2821       C  0.79886223  0.38691867  0.68324947    -0.23800
C2822       C  0.79430638  0.43965563  0.56892492    -0.28400
C2823       C  0.82780739  0.44087871  0.55151497     0.07200
C2824       C  0.86319583  0.43430875  0.56441725    -0.27000
H2825       H  0.73377212  0.42528336  0.60270624     0.11900
H2826       H  0.73570572  0.39923361  0.65233089     0.13000
H2827       H  0.92669754  0.42487121  0.59702998     0.12100
H2828       H  0.92854382  0.40884565  0.65078233     0.11400
H2829       H  0.89355096  0.39665072  0.69863126     0.16700
H2830       H  0.77256001  0.38027788  0.69470676     0.12700
H2831       H  0.76709159  0.44487137  0.55844146     0.15500
H2832       H  0.88867154  0.43370722  0.55038413     0.15300
C2833       C  0.63790423  0.21536833  0.90292079    -0.17600
C2834       C  0.63980263  0.22292110  0.87211241    -0.19800
C2835       C  0.63820627  0.19979839  0.85002792     0.20900
C2836       C  0.63247079  0.16908515  0.85857643    -0.02700
C2837       C  0.63353374  0.16136597  0.88941197    -0.05700
C2838       C  0.63667257  0.18462273  0.91167061     0.21200
C2839       C  0.63643323  0.13037822  0.89764564     0.19300
C2840       C  0.63318739  0.10733975  0.87554377    -0.17200
C2841       C  0.62874567  0.11505670  0.84496763    -0.19400
C2842       C  0.63056507  0.14575857  0.83624175     0.20800
C2843       C  0.63545682  0.15330982  0.80571054    -0.32500
C2844       C  0.64684700  0.18283970  0.79813091     0.01500
C2845       C  0.64664240  0.20627404  0.81986987    -0.23800
C2846       C  0.64271046  0.17660745  0.94191168    -0.28400
C2847       C  0.65036810  0.14627284  0.94926858     0.07200
C2848       C  0.64669572  0.12322162  0.92723435    -0.27000
H2849       H  0.64066207  0.23329546  0.91976515     0.11900
H2850       H  0.64429974  0.24658237  0.86562721     0.13000
H2851       H  0.63614905  0.08349333  0.88161296     0.12100
H2852       H  0.62758032  0.09707612  0.82797477     0.11400
H2853       H  0.63412248  0.13584618  0.78836712     0.16700
H2854       H  0.65563011  0.22916723  0.81346072     0.12700
H2855       H  0.64470397  0.19411719  0.95903121     0.15500
H2856       H  0.65413103  0.09984418  0.93278013     0.15300
C2857       C  0.60439105  0.41781422  0.81882120    -0.17600
C2858       C  0.64409432  0.41614819  0.81895265    -0.19800
C2859       C  0.66373277  0.41473329  0.84672691     0.20900
C2860       C  0.64332092  0.41314224  0.87456236    -0.02700
C2861       C  0.60341601  0.41195910  0.87420470    -0.05700
C2862       C  0.58389677  0.41546108  0.84630398     0.21200
C2863       C  0.58304388  0.40762224  0.90176206     0.19300
C2864       C  0.60255087  0.40663608  0.92964201    -0.17200
C2865       C  0.64205716  0.41081625  0.93018702    -0.19400
C2866       C  0.66273032  0.41299860  0.90273112     0.20800
C2867       C  0.70244808  0.41498355  0.90281393    -0.32500
C2868       C  0.72276836  0.41559661  0.87509625     0.01500
C2869       C  0.70342563  0.41511941  0.84719623    -0.23800
C2870       C  0.54422308  0.41661362  0.84651414    -0.28400
C2871       C  0.52405493  0.41083504  0.87357160     0.07200
C2872       C  0.54344410  0.40520115  0.90088238    -0.27000
H2873       H  0.58974412  0.42008507  0.79720349     0.11900
H2874       H  0.65947370  0.41671376  0.79741010     0.13000
H2875       H  0.58713688  0.40395698  0.95102679     0.12100
H2876       H  0.65654054  0.41159185  0.95200657     0.11400
H2877       H  0.71767956  0.41568759  0.92432247     0.16700
H2878       H  0.71940939  0.41528179  0.82591209     0.12700
H2879       H  0.52891092  0.42183511  0.82570981     0.15500
H2880       H  0.52747423  0.40004177  0.92155039     0.15300
C2881       C  0.89843211  0.22101656  0.62532602    -0.17600
C2882       C  0.85866533  0.22198802  0.62725786    -0.19800
C2883       C  0.83734024  0.19482179  0.62568591     0.20900
C2884       C  0.85606758  0.16656787  0.62194195    -0.02700
C2885       C  0.89587994  0.16539438  0.62269441    -0.05700
C2886       C  0.91719066  0.19277888  0.62400767     0.21200
C2887       C  0.91428842  0.13675988  0.62269496     0.19300
C2888       C  0.89287086  0.10972416  0.62059046    -0.17200
C2889       C  0.85347714  0.11107928  0.61697208    -0.19400
C2890       C  0.83495535  0.13933594  0.61811671     0.20800
C2891       C  0.79550964  0.14074702  0.61669412    -0.32500
C2892       C  0.77687710  0.16806491  0.62334621     0.01500
C2893       C  0.79765962  0.19506670  0.62825257    -0.23800
C2894       C  0.95684931  0.19128715  0.62460722    -0.28400
C2895       C  0.97502292  0.16283772  0.62532926     0.07200
C2896       C  0.95381783  0.13570446  0.62472866    -0.27000
H2897       H  0.91455899  0.24219743  0.62612923     0.11900
H2898       H  0.84461531  0.24389554  0.62961530     0.13000
H2899       H  0.90672348  0.08762282  0.62070530     0.12100
H2900       H  0.83737734  0.09001855  0.61448350     0.11400
H2901       H  0.77899313  0.12031840  0.61184759     0.16700
H2902       H  0.78291003  0.21606261  0.63390742     0.12700
H2903       H  0.97366911  0.21213302  0.62492389     0.15500
H2904       H  0.96826405  0.11385707  0.62568590     0.15300
C2905       C  0.99032326  0.17810314  0.88307997    -0.17600
C2906       C  0.99035899  0.15028001  0.86775475    -0.19800
C2907       C  0.95564390  0.13609234  0.86070326     0.20900
C2908       C  0.92071877  0.15032417  0.86774718    -0.02700
C2909       C  0.92081045  0.17951973  0.88017225    -0.05700
C2910       C  0.95569478  0.19295878  0.88875807     0.21200
C2911       C  0.88608774  0.19537783  0.88368795     0.19300
C2912       C  0.85148075  0.18081611  0.87693728    -0.17200
C2913       C  0.85121958  0.15020316  0.86819933    -0.19400
C2914       C  0.88574346  0.13497789  0.86332039     0.20800
C2915       C  0.88626136  0.10425865  0.85560976    -0.32500
C2916       C  0.92092297  0.09042690  0.84830650     0.01500
C2917       C  0.95511328  0.10700840  0.84860964    -0.23800
C2918       C  0.95538949  0.22176826  0.90145027    -0.28400
C2919       C  0.92173105  0.23887619  0.90147634     0.07200
C2920       C  0.88704021  0.22581625  0.89275839    -0.27000
H2921       H  0.01727279  0.18846457  0.88951726     0.11900
H2922       H  0.01731254  0.13933536  0.86254069     0.13000
H2923       H  0.82474386  0.19281119  0.87899299     0.12100
H2924       H  0.82422873  0.13867521  0.86463281     0.11400
H2925       H  0.86035159  0.09085804  0.85739489     0.16700
H2926       H  0.98177642  0.09571957  0.84304864     0.12700
H2927       H  0.98209119  0.23242782  0.90815432     0.15500
H2928       H  0.86155360  0.23959940  0.89139627     0.15300
C2929       C  0.51224425  0.40093494  0.61790957    -0.17600
C2930       C  0.51373369  0.42890234  0.63270666    -0.19800
C2931       C  0.54919390  0.44219596  0.63896265     0.20900
C2932       C  0.58342900  0.42710710  0.63154569    -0.02700
C2933       C  0.58185719  0.39796719  0.61929073    -0.05700
C2934       C  0.54613885  0.38546181  0.61143565     0.21200
C2935       C  0.61582386  0.38122063  0.61516944     0.19300
C2936       C  0.65124783  0.39484506  0.62128892    -0.17200
C2937       C  0.65289056  0.42540958  0.63032661    -0.19400
C2938       C  0.61908044  0.44161562  0.63535654     0.20800
C2939       C  0.61975831  0.47258394  0.64219959    -0.32500
C2940       C  0.58830356  0.98811994  0.64851251     0.01500
C2941       C  0.55101724  0.47136960  0.65036811    -0.23800
C2942       C  0.54479518  0.35689547  0.59865912    -0.28400
C2943       C  0.57750332  0.33892254  0.59827668     0.07200
C2944       C  0.61315578  0.35082499  0.60625604    -0.27000
H2945       H  0.48475626  0.39097192  0.61239408     0.11900
H2946       H  0.48739198  0.44071210  0.63801012     0.13000
H2947       H  0.67746204  0.38215837  0.61841643     0.12100
H2948       H  0.68028746  0.43627179  0.63389284     0.11400
H2949       H  0.64610010  0.48540337  0.64000004     0.16700
H2950       H  0.52485726  0.48332846  0.65606427     0.12700
H2951       H  0.51751286  0.34710746  0.59212104     0.15500
H2952       H  0.63805752  0.33627926  0.60691153     0.15300
N2953       N  0.58250594  0.80734087  0.10294957    -0.03200
C2954       C  0.55288134  0.79211873  0.11687757    -0.00600
C2955       C  0.54895251  0.76397066  0.10302374    -0.23500
C2956       C  0.57678953  0.76246465  0.08022997    -0.23700
C2957       C  0.59779000  0.78969766  0.08040656    -0.00700
H2958       H  0.52959496  0.74580625  0.10971622     0.13000
H2959       H  0.58189709  0.74285478  0.06568597     0.13100
N2960       N  0.58727487  0.52045786  0.14437254    -0.03200
C2961       C  0.55844436  0.53413745  0.12837544    -0.00600
C2962       C  0.55806221  0.56468484  0.13616619    -0.23500
C2963       C  0.58724401  0.56944028  0.15699976    -0.23700
C2964       C  0.60521219  0.54156963  0.16204940    -0.00700
H2965       H  0.53974395  0.58201964  0.12678073     0.13000
H2966       H  0.59480665  0.59126526  0.16702069     0.13100
Zr2967     Zr  0.69641786  0.57893261  0.23193154     2.17500
O2968       O  0.63108706  0.58692741  0.24934562    -0.51100
O2969       O  0.70063381  0.61514645  0.18710119    -0.74300
O2970       O  0.69296874  0.63038644  0.25011290    -0.81100
O2971       O  0.65823797  0.51244231  0.18717862    -0.82800
O2972       O  0.74947655  0.63945425  0.27416289    -0.78500
O2973       O  0.64764733  0.56264112  0.19745765    -0.90100
O2974       O  0.75873586  0.60865524  0.16575728    -0.76100
O2975       O  0.76069260  0.59631677  0.23189751    -0.85500
O2976       O  0.72597247  0.54575660  0.19596309    -0.85200
O2977       O  0.71880277  0.57236946  0.28414852    -0.72000
O2978       O  0.68867107  0.52762530  0.25246990    -0.84100
Zr2979     Zr  0.80515354  0.50401014  0.26582957     2.26400
Zr2980     Zr  0.78457653  0.58885335  0.28300917     2.06300
Zr2981     Zr  0.71776490  0.99534637  0.21690000     2.10000
Zr2982     Zr  0.78938490  0.56463565  0.19472180     1.78800
O2983       O  0.66733617  0.95740227  0.22331044    -0.92900
O2984       O  0.83925945  0.60370336  0.19413603    -0.40700
O2985       O  0.78304398  0.51226588  0.21385064    -0.77400
O2986       O  0.81448318  0.55570024  0.24588837    -0.96100
O2987       O  0.77716087  0.53745569  0.30213654    -0.89400
O2988       O  0.74207185  0.98916969  0.26813967    -0.92200
C2989       C  0.72603626  0.62265741  0.16661991     1.01600
C2990       C  0.63900298  0.53784422  0.18367530     1.14500
C2991       C  0.71673761  0.64840982  0.26288423     1.05300
O2992       O  0.83230889  0.62942528  0.28237516    -0.94400
O2993       O  0.84767105  0.57193142  0.30761869    -0.90100
O2994       O  0.85705208  0.52208281  0.29553311    -0.83200
C2995       C  0.86730755  0.54649858  0.30908378     1.11900
O2996       O  0.65674350  0.54157928  0.32951257    -0.96300
Zr2997     Zr  0.71294030  0.52045922  0.30416277     1.88900
O2998       O  0.80121585  0.97010325  0.31150122    -0.73000
O2999       O  0.76496992  0.60138557  0.33497662    -0.52200
O3000       O  0.73005309  0.53926256  0.35478361    -0.96900
O3001       O  0.66149619  0.98597877  0.30471933    -0.54100
O3002       O  0.74358882  0.97681714  0.33393989    -0.73500
C3003       C  0.77607635  0.96252566  0.33231120     0.98800
O3004       O  0.87105034  0.48678162  0.26028998    -0.62300
O3005       O  0.73199138  0.97586652  0.16598305    -0.57100
O3006       O  0.81464067  0.95789465  0.24303651    -0.93800
O3007       O  0.75448189  0.94530699  0.22853084    -0.92200
O3008       O  0.78382231  0.54776719  0.14178036    -0.92600
O3009       O  0.84735916  0.54425228  0.17170319    -0.91400
C3010       C  0.78918362  0.93804843  0.23727309     1.17700
H3011       H  0.71513160  0.54797453  0.17582665     0.33600
H3012       H  0.84156274  0.55995402  0.24542427     0.44500
H3013       H  0.73947424  0.96845299  0.27550399     0.38000
H3014       H  0.70446626  0.58591606  0.29734314     0.34500
H3015       H  0.82637202  0.62266637  0.18751058     0.26300
H3016       H  0.76812582  0.62383380  0.33645118     0.32200
H3017       H  0.72062262  0.52350592  0.36924871     0.38100
H3018       H  0.76703382  0.52954111  0.14246359     0.32600
H3019       H  0.72243073  0.99178484  0.15190141     0.31500
H3020       H  0.66934186  0.94431400  0.20488744     0.33100
H3021       H  0.66287498  0.97574131  0.32485531     0.32100
H3022       H  0.85525302  0.52761708  0.18563112     0.36100
H3023       H  0.87113281  0.46482109  0.26587600     0.28800
H3024       H  0.62447932  0.60802643  0.24319251     0.33100
H3025       H  0.65472346  0.53103656  0.34951009     0.35900
H3026       H  0.76461342  0.47536592  0.16508619     0.28500
H3027       H  0.87684569  0.48739827  0.23810952     0.41400
H3028       H  0.82831287  0.64048613  0.30189285     0.31500
H3029       H  0.84533128  0.60742779  0.21590652     0.39100
H3030       H  0.66903746  0.97016650  0.28969911     0.30900
H3031       H  0.78528071  0.59285316  0.34806273     0.31000
H3032       H  0.63275040  0.58746110  0.27191734     0.31300
N3033       N  0.91865866  0.77331703  0.40058407    -0.03200
C3034       C  0.90097818  0.79305509  0.41977307    -0.00600
C3035       C  0.92049460  0.82082554  0.41775689    -0.23500
C3036       C  0.94987309  0.81749892  0.39663773    -0.23700
C3037       C  0.94839240  0.78775768  0.38609706    -0.00700
H3038       H  0.91303599  0.84195871  0.42917392     0.13000
H3039       H  0.96790197  0.83567019  0.38792114     0.13100
N3040       N  0.92234427  0.55998269  0.34758300    -0.03200
C3041       C  0.95153085  0.54430410  0.36115175    -0.00600
C3042       C  0.95613395  0.01616938  0.34522500    -0.23500
C3043       C  0.92680320  0.01603521  0.32405363    -0.25700
C3044       C  0.90391979  0.54153706  0.32738563    -0.00700
H3045       H  0.97434892  0.99699218  0.35059762     0.13000
H3046       H  0.91988193  0.99699533  0.30924946     0.13100
N3047       N  0.73712833  0.66697728  0.12383756    -0.03200
C3048       C  0.71489649  0.64816339  0.14252046    -0.00600
C3049       C  0.67736176  0.65627052  0.13687807    -0.23500
C3050       C  0.67691429  0.67933610  0.11472268    -0.23700
C3051       C  0.71423067  0.68632596  0.10658713    -0.00700
H3052       H  0.65249686  0.64614766  0.14763477     0.13000
H3053       H  0.65163394  0.69009261  0.10564752     0.13100
N3054       N  0.51485093  0.66162377  0.12356785    -0.03200
C3055       C  0.53711240  0.67909764  0.14320565    -0.00600
C3056       C  0.57466683  0.67240764  0.13589275    -0.23500
C3057       C  0.57504744  0.65062928  0.11242945    -0.23700
C3058       C  0.53765396  0.64406501  0.10432209    -0.00700
H3059       H  0.59948328  0.68211975  0.14688836     0.13000
H3060       H  0.60034084  0.64085056  0.10212687     0.13100
Zr3061     Zr  0.94272324  0.80463066  0.28619405     2.17500
O3062       O  0.87966322  0.78593764  0.30135732    -0.51100
O3063       O  0.94696754  0.85005642  0.32258786    -0.74300
O3064       O  0.93587167  0.78034632  0.33454329    -0.81100
O3065       O  0.90289887  0.84765190  0.21820761    -0.82800
O3066       O  0.99757343  0.77316412  0.34733208    -0.78500
O3067       O  0.89279834  0.83686641  0.26841429    -0.90100
O3068       O  0.50455579  0.86908275  0.31467538    -0.76100
O3069       O  0.00642883  0.80778222  0.30387537    -0.85500
O3070       O  0.97145577  0.84060239  0.25234723    -0.85200
O3071       O  0.96818054  0.75313721  0.28011975    -0.72000
O3072       O  0.93553587  0.78316419  0.23505769    -0.84100
Zr3073     Zr  0.55578506  0.76939803  0.21160697     2.26400
Zr3074     Zr  0.03275474  0.75756253  0.29799504     2.06300
Zr3075     Zr  0.96460644  0.82004570  0.20119412     2.10000
Zr3076     Zr  0.53540371  0.84134703  0.27029716     1.78800
O3077       O  0.91398036  0.81111189  0.16419299    -0.92900
O3078       O  0.58194909  0.84415873  0.31155054    -0.40700
O3079       O  0.52918652  0.82035921  0.21872775    -0.77400
O3080       O  0.56476945  0.79170319  0.26249811    -0.96100
O3081       O  0.53025468  0.73332281  0.24689881    -0.89400
O3082       O  0.49056360  0.76503746  0.19664244    -0.92200
C3083       C  0.97191802  0.87110556  0.32977936     1.01600
C3084       C  0.88332067  0.85037162  0.24379814     1.14500
C3085       C  0.96199243  0.77905271  0.35445990     1.05300
O3086       O  0.58602225  0.76625960  0.33501021    -0.94400
O3087       O  0.59983459  0.73288997  0.27945493    -0.90100
O3088       O  0.61441018  0.74914744  0.23150428    -0.83200
C3089       C  0.62270463  0.73446578  0.25578499     1.11900
O3090       O  0.90738276  0.71025444  0.25427613    -0.96300
Zr3091     Zr  0.96284168  0.73231449  0.22843725     1.88900
O3092       O  0.54963387  0.72400856  0.17594460    -0.73000
O3093       O  0.02340728  0.70923118  0.32465484    -0.52200
O3094       O  0.97137097  0.67860296  0.24128255    -0.96900
O3095       O  0.91018339  0.73102774  0.19236047    -0.54100
O3096       O  0.99310648  0.70245800  0.18447072    -0.73500
C3097       C  0.52561617  0.70221919  0.16941432     0.98800
O3098       O  0.61723247  0.76901169  0.18486858    -0.62300
O3099       O  0.47906784  0.86674560  0.18391849    -0.57100
O3100       O  0.55861315  0.80443877  0.16944672    -0.93800
O3101       O  0.49875532  0.80417276  0.15254280    -0.92200
O3102       O  0.52799487  0.89413839  0.25354604    -0.92600
O3103       O  0.59291260  0.86391210  0.24812815    -0.91400
C3104       C  0.53530282  0.80121975  0.14757905     1.17700
H3105       H  0.95974676  0.86043388  0.25413058     0.33600
H3106       H  0.59170606  0.79380640  0.26672370     0.44500
H3107       H  0.48737300  0.75725631  0.17613041     0.38000
H3108       H  0.95455733  0.73948331  0.29385165     0.34500
H3109       H  0.57873461  0.82480088  0.32299207     0.26300
H3110       H  0.00680819  0.69704235  0.31098461     0.32200
H3111       H  0.99759195  0.67732249  0.24949882     0.38100
H3112       H  0.50359246  0.90107321  0.26264273     0.32600
H3113       H  0.47397518  0.88046231  0.20148166     0.31500
H3114       H  0.92622624  0.79936866  0.14747959     0.33100
H3115       H  0.88901259  0.74208553  0.20249645     0.32100
H3116       H  0.60849322  0.84622428  0.24156354     0.36100
H3117       H  0.61163888  0.76244044  0.16365654     0.28800
H3118       H  0.86578703  0.78231477  0.28200745     0.33100
H3119       H  0.89133797  0.72803639  0.25978723     0.35900
H3120       H  0.50721775  0.86677852  0.18184101     0.28500
H3121       H  0.62566591  0.79058210  0.18310442     0.41400
H3122       H  0.57493090  0.75933103  0.35470556     0.31500
H3123       H  0.60736057  0.84244398  0.30176814     0.39100
H3124       H  0.90179311  0.70937589  0.19201748     0.30900
H3125       H  0.04850839  0.69896524  0.32360779     0.31000
H3126       H  0.86652666  0.80344959  0.31112740     0.31300
N3127       N  0.76387033  0.91660411  0.37289953    -0.03200
C3128       C  0.78580336  0.89743241  0.39111734    -0.00600
C3129       C  0.82339305  0.90560716  0.38522802    -0.23500
C3130       C  0.82406661  0.92910187  0.36342231    -0.23700
C3131       C  0.78678784  0.93632744  0.35578450    -0.00700
H3132       H  0.84807681  0.89527677  0.39567021     0.13000
H3133       H  0.84945092  0.94011251  0.35443085     0.13100
N3134       N  0.98371196  0.91324301  0.37469117    -0.03200
C3135       C  0.96100424  0.89527679  0.35562370    -0.00600
C3136       C  0.92367604  0.90158440  0.36416850    -0.23500
C3137       C  0.92402440  0.92335263  0.38774780    -0.23700
C3138       C  0.96154422  0.93053404  0.39481658    -0.00700
H3139       H  0.89843528  0.89143811  0.35418064     0.13000
H3140       H  0.89914752  0.93274853  0.39898212     0.13100
Zr3141     Zr  0.94447099  0.52353546  0.46281335     2.17500
O3142       O  0.88107687  0.54420832  0.45291362    -0.51100
O3143       O  0.94774840  0.97477791  0.42898846    -0.74300
O3144       O  0.93843571  0.54388169  0.41289521    -0.81100
O3145       O  0.89558784  0.98832650  0.02965633    -0.82800
O3146       O  0.99929981  0.55804975  0.40109669    -0.78500
O3147       O  0.89260833  0.99202078  0.48187020    -0.90100
O3148       O  0.50818911  0.95198693  0.43111712    -0.76100
O3149       O  0.00855924  0.51994956  0.44551499    -0.85500
O3150       O  0.97214851  0.98446381  0.49886132    -0.85200
O3151       O  0.97092652  0.57491705  0.46732818    -0.72000
O3152       O  0.93799820  0.54556125  0.01322065    -0.84100
Zr3153     Zr  0.55747805  0.55473176  0.03433064     2.26400
Zr3154     Zr  0.03605733  0.57014843  0.45055381     2.06300
Zr3155     Zr  0.96020656  0.01124103  0.04655947     2.10000
Zr3156     Zr  0.53386723  0.48149298  0.47702329     1.78800
O3157       O  0.91139946  0.02157335  0.08493544    -0.92900
O3158       O  0.58230564  0.47756507  0.43701445    -0.40700
O3159       O  0.53261241  0.50308928  0.02712506    -0.77400
O3160       O  0.56458223  0.53118702  0.48377533    -0.96100
O3161       O  0.52927655  0.59049931  0.00042351    -0.89400
O3162       O  0.49288858  0.55699152  0.05160966    -0.92200
C3163       C  0.97285892  0.95434812  0.42090989     1.01600
C3164       C  0.87644470  0.98582371  0.00398267     1.14500
C3165       C  0.96441612  0.55010683  0.39352277     1.05300
O3166       O  0.58512109  0.56039822  0.41189181    -0.94400
O3167       O  0.59692289  0.59380591  0.46702006    -0.90100
O3168       O  0.61216268  0.58110630  0.01401648    -0.83200
C3169       C  0.61884364  0.59538203  0.49114848     1.11900
O3170       O  0.90965756  0.61940662  0.99837477    -0.96300
Zr3171     Zr  0.96695561  0.59592425  0.01899514     1.88900
O3172       O  0.55131237  0.59972290  0.07076110    -0.73000
O3173       O  0.02932029  0.61921905  0.42496661    -0.52200
O3174       O  0.97897152  0.64744153  0.99998906    -0.96900
O3175       O  0.91210807  0.59980408  0.05265598    -0.54100
O3176       O  0.99624686  0.62462207  0.06397014    -0.73500
C3177       C  0.52673811  0.62088181  0.07799035     0.98800
O3178       O  0.62277774  0.55005125  0.05306395    -0.62300
O3179       O  0.48506955  0.95305252  0.06666361    -0.57100
O3180       O  0.56383426  0.51992656  0.07647266    -0.93800
O3181       O  0.50461529  0.51764744  0.09495667    -0.92200
O3182       O  0.53426722  0.92986285  0.49302909    -0.92600
O3183       O  0.58922339  0.45343345  0.49515979    -0.91400
C3184       C  0.54107091  0.52197505  0.09894439     1.17700
H3185       H  0.95925514  0.96494587  0.49729104     0.33600
H3186       H  0.59130893  0.52956956  0.47914037     0.44500
H3187       H  0.49031919  0.56449919  0.07228970     0.38000
H3188       H  0.95798179  0.58808718  0.45297843     0.34500
H3189       H  0.57288804  0.49058584  0.42016152     0.26300
H3190       H  0.04015688  0.63432592  0.43941555     0.32200
H3191       H  0.97428742  0.64621523  0.97769983     0.38100
H3192       H  0.54645755  0.93023909  0.51341061     0.32600
H3193       H  0.46923820  0.93885280  0.05441624     0.31500
H3194       H  0.90021072  0.04131011  0.07853665     0.33100
H3195       H  0.91570961  0.61977830  0.06287562     0.32100
H3196       H  0.59993643  0.46631085  0.51165604     0.36100
H3197       H  0.62184946  0.55536791  0.07508452     0.28800
H3198       H  0.88548482  0.56603105  0.44793222     0.33100
H3199       H  0.89490527  0.60217340  0.98962321     0.35900
H3200       H  0.51144243  0.94963074  0.05923333     0.28500
H3201       H  0.63024706  0.55157136  0.56436872     0.41400
H3202       H  0.60326475  0.54612207  0.42157873     0.31500
H3203       H  0.60507470  0.48843377  0.44483920     0.39100
H3204       H  0.91708828  0.58429562  0.06858406     0.30900
H3205       H  0.04809823  0.61841175  0.40798993     0.31000
H3206       H  0.86811013  0.54488182  0.47308509     0.31300
N3207       N  0.67048145  0.69275034  0.27092639    -0.03200
C3208       C  0.70493599  0.68164045  0.26104358    -0.00600
C3209       C  0.71694549  0.70026564  0.23717705    -0.23500
C3210       C  0.68953399  0.72288893  0.23316021    -0.23700
C3211       C  0.66089707  0.71787243  0.25460486    -0.00700
H3212       H  0.74104360  0.69613939  0.22217676     0.13000
H3213       H  0.68966834  0.74009668  0.21538166     0.13100
N3214       N  0.66517850  0.63908200  0.47569351    -0.03200
C3215       C  0.65695020  0.61423092  0.99103226    -0.00600
C3216       C  0.68533263  0.60909376  0.01244196    -0.23500
C3217       C  0.71301960  0.63171357  0.00880494    -0.23700
C3218       C  0.70166275  0.65065004  0.98518877    -0.00700
H3219       H  0.68523621  0.59158323  0.02992268     0.13000
H3220       H  0.73699150  0.63555521  0.02386926     0.13100
Zr3221     Zr  0.69546700  0.75342022  0.01530786     2.17500
O3222       O  0.63124048  0.74463437  0.99588650    -0.51100
O3223       O  0.69926216  0.71857103  0.06150376    -0.74300
O3224       O  0.69162071  0.70186697  0.99748245    -0.81100
O3225       O  0.65374822  0.82008209  0.05880748    -0.82800
O3226       O  0.74549956  0.69292717  0.47182318    -0.78500
O3227       O  0.64335952  0.77023973  0.04648730    -0.90100
O3228       O  0.75757971  0.72528358  0.08213149    -0.76100
O3229       O  0.75977828  0.73666716  0.01592408    -0.85500
O3230       O  0.72389643  0.78680662  0.05151712    -0.85200
O3231       O  0.71661155  0.76071146  0.46281252    -0.72000
O3232       O  0.68830741  0.80462923  0.99482726    -0.84100
Zr3233     Zr  0.80149143  0.82880873  0.48128366     2.26400
Zr3234     Zr  0.78189833  0.74384143  0.46380087     2.06300
Zr3235     Zr  0.71594610  0.83837717  0.03221807     2.10000
Zr3236     Zr  0.78782656  0.76909302  0.05288472     1.78800
O3237       O  0.66590291  0.87641740  0.02684207    -0.92900
O3238       O  0.83783615  0.73046963  0.05520275    -0.40700
O3239       O  0.78134753  0.82148696  0.03396791    -0.77400
O3240       O  0.81128021  0.77726416  0.50044101    -0.96100
O3241       O  0.77381325  0.79535102  0.44443180    -0.89400
O3242       O  0.73713688  0.84521240  0.48065236    -0.92200
C3243       C  0.72481101  0.71134808  0.08180507     1.01600
C3244       C  0.63378299  0.79459795  0.06063441     1.14500
C3245       C  0.71253797  0.68376295  0.48317183     1.05300
O3246       O  0.83341591  0.70778003  0.47251137    -0.94400
O3247       O  0.84440543  0.76343855  0.43973549    -0.90100
O3248       O  0.85430265  0.81349543  0.45133795    -0.83200
C3249       C  0.86433526  0.78887462  0.43815326     1.11900
O3250       O  0.65217130  0.79098208  0.42171606    -0.96300
Zr3251     Zr  0.70977999  0.81310276  0.44365882     1.88900
O3252       O  0.79916507  0.86376066  0.43531029    -0.73000
O3253       O  0.77019482  0.72392869  0.41271844    -0.52200
O3254       O  0.70644392  0.80037721  0.38939240    -0.96900
O3255       O  0.65835503  0.84971234  0.45049346    -0.54100
O3256       O  0.74105897  0.85742684  0.41396680    -0.73500
C3257       C  0.77408939  0.87139022  0.41483037     0.98800
O3258       O  0.86072185  0.84271573  0.50696068    -0.62300
O3259       O  0.73182340  0.85634026  0.08332039    -0.57100
O3260       O  0.80416774  0.88108774  0.49541464    -0.93800
O3261       O  0.75023861  0.88967104  0.02046477    -0.92200
O3262       O  0.78086728  0.79085891  0.10388315    -0.92600
O3263       O  0.84809064  0.78612741  0.07474660    -0.91400
C3264       C  0.78275552  0.89876059  0.00818526     1.17700
H3265       H  0.71234171  0.78444364  0.07157330     0.33600
H3266       H  0.83831508  0.77334050  0.50058292     0.44500
H3267       H  0.73407391  0.86593998  0.47352059     0.38000
H3268       H  0.70229736  0.74730090  0.44960207     0.34500
H3269       H  0.82453392  0.71109410  0.06024330     0.26300
H3270       H  0.74293918  0.71784485  0.41271242     0.32200
H3271       H  0.70913563  0.81997974  0.37824148     0.38100
H3272       H  0.77756715  0.77308398  0.11765545     0.32600
H3273       H  0.71608301  0.84346711  0.09711989     0.31500
H3274       H  0.65857788  0.88173575  0.04808928     0.33100
H3275       H  0.64173374  0.84133035  0.46686379     0.32100
H3276       H  0.86344139  0.79321658  0.05703315     0.36100
H3277       H  0.87694531  0.85744427  0.99463573     0.28800
H3278       H  0.62444400  0.72328185  0.00119653     0.33100
H3279       H  0.63405440  0.78923463  0.43908236     0.35900
H3280       H  0.75828052  0.84937449  0.08683794     0.28500
H3281       H  0.87365580  0.82303416  0.51090509     0.41400
H3282       H  0.83352961  0.69458946  0.45410969     0.31500
H3283       H  0.84645918  0.72765267  0.03380184     0.39100
H3284       H  0.64289271  0.84791691  0.43168963     0.30900
H3285       H  0.77144856  0.74208365  0.39923689     0.31000
H3286       H  0.63397119  0.74492904  0.97335458     0.31300
N3287       N  0.83114838  0.89100678  0.22984317    -0.03200
C3288       C  0.80222995  0.90587620  0.24490711    -0.00600
C3289       C  0.80103607  0.89473074  0.27443631    -0.23500
C3290       C  0.82914745  0.87259322  0.27678095    -0.23700
C3291       C  0.84800638  0.87048313  0.24870224    -0.00700
H3292       H  0.78400303  0.90356472  0.29312686     0.13000
H3293       H  0.83620063  0.86040450  0.29752670     0.13100
N3294       N  0.82282768  0.94612977  0.01765273    -0.03200
C3295       C  0.79256970  0.93229599  0.50427497    -0.00600
C3296       C  0.79113477  0.94691750  0.47630847    -0.23500
C3297       C  0.82045622  0.96841977  0.47566340    -0.23700
C3298       C  0.84053994  0.96665385  0.50309068    -0.00700
H3299       H  0.77369463  0.94033296  0.45700862     0.13000
H3300       H  0.82814008  0.98211962  0.45594177     0.13100
C3301       C  0.76170433  0.92127977  0.11087517    -0.17600
C3302       C  0.76305614  0.90715016  0.13916931    -0.19800
C3303       C  0.79838616  0.90149688  0.15260356     0.20900
C3304       C  0.83272135  0.90918128  0.13759319    -0.02700
C3305       C  0.83135782  0.92100060  0.10825941    -0.05700
C3306       C  0.79570114  0.92810476  0.09550048     0.21200
C3307       C  0.86550433  0.92558552  0.09163360     0.19300
C3308       C  0.90077371  0.92024884  0.10550837    -0.17200
C3309       C  0.90213915  0.91184527  0.13623566    -0.19400
C3310       C  0.86821204  0.90605935  0.15233535     0.20800
C3311       C  0.86850274  0.89879884  0.18329129    -0.32500
C3312       C  0.83404702  0.89157629  0.19781420     0.01500
C3313       C  0.79985797  0.89019103  0.18175313    -0.23800
C3314       C  0.79461087  0.94090861  0.06696538    -0.28400
C3315       C  0.82776156  0.94218434  0.04922632     0.07200
C3316       C  0.86328574  0.93460930  0.06124925    -0.27000
H3317       H  0.73434151  0.92618488  0.10061762     0.11900
H3318       H  0.73675222  0.90183476  0.15116686     0.13000
H3319       H  0.92712632  0.92337835  0.09294332     0.12100
H3320       H  0.92952956  0.90963211  0.14722894     0.11400
H3321       H  0.89464162  0.90041339  0.19628599     0.16700
H3322       H  0.77358538  0.88409248  0.19355110     0.12700
H3323       H  0.76732769  0.94697823  0.05705759     0.15500
H3324       H  0.88849835  0.93459260  0.04684804     0.15300
C3325       C  0.63269300  0.71625452  0.40371804    -0.17600
C3326       C  0.63825352  0.72438589  0.37333309    -0.19800
C3327       C  0.63868514  0.70175146  0.35068060     0.20900
C3328       C  0.63093782  0.67102403  0.35804591    -0.02700
C3329       C  0.62920965  0.66261954  0.38870350    -0.05700
C3330       C  0.63100919  0.68535933  0.41164795     0.21200
C3331       C  0.63245143  0.63149564  0.39625601     0.19300
C3332       C  0.63034898  0.60894862  0.37356960    -0.17200
C3333       C  0.62790916  0.61733549  0.34305106    -0.19400
C3334       C  0.63123074  0.64816509  0.33513945     0.20800
C3335       C  0.64040292  0.65614009  0.30533551    -0.32500
C3336       C  0.65309669  0.68565105  0.29923852     0.01500
C3337       C  0.65124089  0.70858835  0.32150634    -0.23800
C3338       C  0.63714038  0.67675644  0.44170436    -0.28400
C3339       C  0.64679663  0.64663681  0.44799108     0.07200
C3340       C  0.64332699  0.62392836  0.42557441    -0.27000
H3341       H  0.63415155  0.73370597  0.42117472     0.11900
H3342       H  0.64440516  0.74804836  0.36780352     0.13000
H3343       H  0.63359007  0.58501474  0.37909239     0.12100
H3344       H  0.62811942  0.59969174  0.32569256     0.11400
H3345       H  0.64113102  0.63901130  0.28763204     0.16700
H3346       H  0.66124984  0.73150048  0.31622727     0.12700
H3347       H  0.63888753  0.69380400  0.45938197     0.15500
H3348       H  0.65185156  0.60065070  0.43051778     0.15300
C3349       C  0.60491038  0.91463994  0.31650528    -0.17600
C3350       C  0.64469339  0.91358094  0.31629768    -0.19800
C3351       C  0.66469944  0.91330983  0.34399522     0.20900
C3352       C  0.64462151  0.91201898  0.37203322    -0.02700
C3353       C  0.60487165  0.91029905  0.37206811    -0.05700
C3354       C  0.58491839  0.91314559  0.34432162     0.21200
C3355       C  0.58501838  0.90656720  0.39997005     0.19300
C3356       C  0.60479096  0.90662915  0.42770627    -0.17200
C3357       C  0.64412859  0.91116452  0.42780117    -0.19400
C3358       C  0.66419078  0.91311020  0.40010947     0.20800
C3359       C  0.70353745  0.91609818  0.39998678    -0.32500
C3360       C  0.72355081  0.91617169  0.37232221     0.01500
C3361       C  0.70437274  0.91476902  0.34434757    -0.23800
C3362       C  0.54532460  0.91496030  0.34515798    -0.28400
C3363       C  0.52572080  0.90959291  0.37260163     0.07200
C3364       C  0.54555405  0.90396193  0.39961569    -0.27000
H3365       H  0.58979511  0.91621195  0.29500421     0.11900
H3366       H  0.65980002  0.91422368  0.29461742     0.13000
H3367       H  0.58973178  0.90423706  0.44928155     0.12100
H3368       H  0.65900311  0.91214923  0.44946482     0.11400
H3369       H  0.71889824  0.91771359  0.42139692     0.16700
H3370       H  0.72038881  0.91486731  0.32307397     0.12700
H3371       H  0.52965310  0.92029856  0.32455441     0.15500
H3372       H  0.53000426  0.89895502  0.42052175     0.15300
C3373       C  0.89785767  0.72080793  0.12499071    -0.17600
C3374       C  0.85819695  0.72121993  0.12739079    -0.19800
C3375       C  0.83752401  0.69375206  0.12626681     0.20900
C3376       C  0.85671872  0.66564393  0.12320918    -0.02700
C3377       C  0.89650740  0.66507055  0.12352053    -0.05700
C3378       C  0.91712862  0.69283363  0.12361196     0.21200
C3379       C  0.91561539  0.63673985  0.12381104     0.19300
C3380       C  0.89475510  0.60933539  0.12314011    -0.17200
C3381       C  0.85523041  0.61002961  0.11988558    -0.19400
C3382       C  0.83610910  0.63808954  0.11997396     0.20800
C3383       C  0.79663541  0.63920326  0.11753117    -0.32500
C3384       C  0.77755966  0.66669425  0.12287271     0.01500
C3385       C  0.79794176  0.69371259  0.12819447    -0.23800
C3386       C  0.95668950  0.69203649  0.12270344    -0.28400
C3387       C  0.97558744  0.66397432  0.12342458     0.07200
C3388       C  0.95525382  0.63642275  0.12432313    -0.27000
H3389       H  0.91350266  0.74223753  0.12525684     0.11900
H3390       H  0.84368277  0.74295524  0.12943814     0.13000
H3391       H  0.90912698  0.58745470  0.12385426     0.12100
H3392       H  0.83957466  0.58869916  0.11808638     0.11400
H3393       H  0.78050837  0.61858434  0.11267269     0.16700
H3394       H  0.78285734  0.71464793  0.13344073     0.12700
H3395       H  0.97297068  0.71315854  0.12193436     0.15500
H3396       H  0.97041584  0.61489338  0.12520431     0.15300
C3397       C  0.98456952  0.68123081  0.38554134    -0.17600
C3398       C  0.98520781  0.65326525  0.37065170    -0.19800
C3399       C  0.95088679  0.63802292  0.36465745     0.20900
C3400       C  0.91557706  0.65107744  0.37262930    -0.02700
C3401       C  0.91487804  0.68041155  0.38466195    -0.05700
C3402       C  0.94953703  0.69506044  0.39193203     0.21200
C3403       C  0.87977038  0.69572179  0.38778333     0.19300
C3404       C  0.84547051  0.68006720  0.38239655    -0.17200
C3405       C  0.84612589  0.64930958  0.37397273    -0.19400
C3406       C  0.88109697  0.63490300  0.36834026     0.20800
C3407       C  0.88270909  0.60442849  0.35931754    -0.32500
C3408       C  0.91797878  0.59179958  0.35136215     0.01500
C3409       C  0.95135719  0.60931484  0.35193791    -0.23800
C3410       C  0.94867548  0.72448029  0.40284759    -0.28400
C3411       C  0.91497980  0.74119581  0.40082126     0.07200
C3412       C  0.88027961  0.72692609  0.39383695    -0.27000
H3413       H  0.01129882  0.69275016  0.39049065     0.11900
H3414       H  0.01241960  0.64324686  0.36450215     0.13000
H3415       H  0.81833691  0.69147492  0.38474383     0.12100
H3416       H  0.81946932  0.63719253  0.37084421     0.11400
H3417       H  0.85723647  0.59038022  0.35989984     0.16700
H3418       H  0.97838019  0.59911888  0.34543440     0.12700
H3419       H  0.97519092  0.73595845  0.40864503     0.15500
H3420       H  0.85458316  0.74020141  0.39089780     0.15300
C3421       C  0.51794800  0.89953552  0.12467268    -0.17600
C3422       C  0.51812831  0.92826970  0.13797550    -0.19800
C3423       C  0.55294566  0.94316539  0.14289451     0.20900
C3424       C  0.58784599  0.92893394  0.13567618    -0.02700
C3425       C  0.58765480  0.89913134  0.12497682    -0.05700
C3426       C  0.55255144  0.88502209  0.11834576     0.21200
C3427       C  0.62243793  0.88355346  0.12053114     0.19300
C3428       C  0.65711090  0.89892823  0.12471363    -0.17200
C3429       C  0.65722012  0.92991061  0.13229774    -0.19400
C3430       C  0.62270627  0.94496860  0.13780332     0.20800
C3431       C  0.62183604  0.97617561  0.14343061    -0.32500
C3432       C  0.58950089  0.48851048  0.14801261     0.01500
C3433       C  0.55337605  0.97295597  0.15269938    -0.23800
C3434       C  0.55262137  0.85613146  0.10629469    -0.28400
C3435       C  0.58634723  0.83925342  0.10579115     0.07200
C3436       C  0.62143638  0.85274830  0.11263063    -0.27000
H3437       H  0.49096892  0.88834234  0.11998718     0.11900
H3438       H  0.49121826  0.93935492  0.14305695     0.13000
H3439       H  0.68384337  0.88724452  0.12111149     0.12100
H3440       H  0.68404106  0.94204308  0.13411535     0.11400
H3441       H  0.64741230  0.98986548  0.14054140     0.16700
H3442       H  0.52671895  0.98427523  0.15823543     0.12700
H3443       H  0.52573662  0.84532990  0.10031348     0.15500
H3444       H  0.64722882  0.83922727  0.11277212     0.15300
N3445       N  0.57673240  0.80660383  0.59792006    -0.03200
C3446       C  0.54651121  0.79115162  0.61061585    -0.00600
C3447       C  0.54650606  0.76194950  0.59865063    -0.23500
C3448       C  0.57686937  0.76014784  0.57830644    -0.23700
C3449       C  0.59583678  0.78824778  0.57811969    -0.00700
H3450       H  0.52922611  0.74289972  0.60638382     0.13000
H3451       H  0.58538289  0.73964810  0.56623028     0.13100
N3452       N  0.58319637  0.51941753  0.64814458    -0.03200
C3453       C  0.55476982  0.53426332  0.63268277    -0.00600
C3454       C  0.55643176  0.56468951  0.64098685    -0.23500
C3455       C  0.58627451  0.56798163  0.66151383    -0.23700
C3456       C  0.60304357  0.53945485  0.66576641    -0.00700
H3457       H  0.53991467  0.58307404  0.63134174     0.13000
H3458       H  0.59565126  0.58946571  0.67130251     0.13100
Zr3459     Zr  0.69773621  0.57684570  0.73144382     2.17500
O3460       O  0.63123747  0.58556510  0.74558346    -0.51100
O3461       O  0.70216442  0.61272366  0.68624834    -0.74300
O3462       O  0.69295251  0.62790487  0.74957569    -0.81100
O3463       O  0.65740196  0.50924423  0.68924854    -0.82800
O3464       O  0.75097431  0.63858086  0.77021726    -0.78500
O3465       O  0.64828811  0.55974768  0.69868431    -0.90100
O3466       O  0.76005952  0.60608557  0.66465469    -0.76100
O3467       O  0.76181454  0.59441691  0.73139725    -0.85500
O3468       O  0.72715596  0.54326679  0.69592851    -0.85200
O3469       O  0.71940429  0.57094058  0.78388349    -0.72000
O3470       O  0.68939074  0.52588596  0.75230903    -0.84100
Zr3471     Zr  0.80674664  0.50378327  0.76659133     2.26400
Zr3472     Zr  0.78513784  0.58810876  0.78286804     2.06300
Zr3473     Zr  0.71781291  0.99336378  0.71539198     2.10000
Zr3474     Zr  0.79049080  0.56243433  0.69441370     1.78800
O3475       O  0.66603008  0.95673246  0.72261969    -0.92900
O3476       O  0.83661567  0.60408303  0.68967449    -0.40700
O3477       O  0.78435402  0.51019482  0.71436656    -0.77400
O3478       O  0.81510966  0.55510504  0.74597144    -0.96100
O3479       O  0.77779187  0.53686970  0.80261502    -0.89400
O3480       O  0.74149274  0.98597645  0.76704583    -0.92200
C3481       C  0.72737339  0.62014086  0.66556827     1.01600
C3482       C  0.63834351  0.53485660  0.68585740     1.14500
C3483       C  0.71747427  0.64679165  0.75974836     1.05300
O3484       O  0.83308717  0.62850408  0.78501110    -0.94400
O3485       O  0.84948307  0.57168953  0.80680505    -0.90100
O3486       O  0.85649162  0.52065993  0.79929377    -0.83200
C3487       C  0.86829083  0.54594662  0.81027297     1.11900
O3488       O  0.65621254  0.53595122  0.83033548    -0.96300
Zr3489     Zr  0.71362695  0.51895395  0.80388013     1.88900
O3490       O  0.79972948  0.96791402  0.81102389    -0.73000
O3491       O  0.76345398  0.60108421  0.83421117    -0.52200
O3492       O  0.72059394  0.54014283  0.85505744    -0.96900
O3493       O  0.66017471  0.98228682  0.80221231    -0.54100
O3494       O  0.74250020  0.97509152  0.83394459    -0.73500
C3495       C  0.77507394  0.96107282  0.83240039     0.98800
O3496       O  0.87233887  0.49537072  0.74952350    -0.62300
O3497       O  0.73075301  0.97204088  0.66500113    -0.57100
O3498       O  0.81379494  0.96092186  0.73104153    -0.93800
O3499       O  0.75417436  0.94357472  0.72673276    -0.92200
O3500       O  0.78085045  0.54219157  0.64290119    -0.92600
O3501       O  0.85277706  0.54477806  0.67670250    -0.91400
C3502       C  0.79042230  0.93875694  0.73163948     1.17700
H3503       H  0.71594940  0.54511967  0.67580088     0.33600
H3504       H  0.84208208  0.55974118  0.74556966     0.44500
H3505       H  0.73902528  0.96517616  0.77419471     0.38000
H3506       H  0.70470502  0.58439598  0.79681458     0.34500
H3507       H  0.82394486  0.62188283  0.69929278     0.26300
H3508       H  0.76043228  0.62357889  0.83398015     0.32200
H3509       H  0.74790680  0.53749933  0.86006030     0.38100
H3510       H  0.80496877  0.53219769  0.63672818     0.32600
H3511       H  0.73192890  0.98994685  0.65119274     0.31500
H3512       H  0.66959504  0.94160888  0.70599737     0.33100
H3513       H  0.65900243  0.97397471  0.82324481     0.32100
H3514       H  0.86622227  0.53823948  0.69543513     0.36100
H3515       H  0.88112891  0.47683950  0.76038254     0.28800
H3516       H  0.62589913  0.60727308  0.74090250     0.33100
H3517       H  0.64080269  0.54583370  0.81424443     0.35900
H3518       H  0.76141102  0.47460537  0.66281035     0.28500
H3519       H  0.87042372  0.48914280  0.72780684     0.41400
H3520       H  0.82059011  0.64545310  0.79618884     0.31500
H3521       H  0.85753007  0.59894534  0.70388598     0.39100
H3522       H  0.66991566  0.96533546  0.78944402     0.30900
H3523       H  0.78588610  0.59740609  0.84734308     0.31000
H3524       H  0.63053564  0.58411739  0.76815681     0.31300
N3525       N  0.92431316  0.77362032  0.90209189    -0.03200
C3526       C  0.90453101  0.79303405  0.92042402    -0.00600
C3527       C  0.92198702  0.82162430  0.91757882    -0.23500
C3528       C  0.95176350  0.81914310  0.89675245    -0.23700
C3529       C  0.95278450  0.78910567  0.88712736    -0.00700
H3530       H  0.91260248  0.84278641  0.92797416     0.13000
H3531       H  0.96799782  0.83799465  0.88725705     0.13100
N3532       N  0.92475295  0.55971933  0.84783381    -0.03200
C3533       C  0.95520578  0.54432568  0.85999900    -0.00600
C3534       C  0.94802591  0.01213502  0.85318036    -0.23500
C3535       C  0.91843721  0.01010887  0.83232036    -0.25700
C3536       C  0.90639208  0.54172355  0.82710562    -0.00700
H3537       H  0.96312719  0.99305138  0.86299722     0.13000
H3538       H  0.90798163  0.98902788  0.82235916     0.13100
N3539       N  0.73782852  0.66478975  0.62276264    -0.03200
C3540       C  0.71591060  0.64556824  0.64133690    -0.00600
C3541       C  0.67826654  0.65330924  0.63565130    -0.23500
C3542       C  0.67746859  0.67650516  0.61359913    -0.23700
C3543       C  0.71465112  0.68406913  0.60554955    -0.00700
H3544       H  0.65355131  0.64292228  0.64638843     0.13000
H3545       H  0.65202842  0.68705132  0.60457891     0.13100
N3546       N  0.51749470  0.66200357  0.62291099    -0.03200
C3547       C  0.53946847  0.67953292  0.64272366    -0.00600
C3548       C  0.57708097  0.67221619  0.63612351    -0.23500
C3549       C  0.57761975  0.65004138  0.61294311    -0.23700
C3550       C  0.54033133  0.64377242  0.60435560    -0.00700
H3551       H  0.60182434  0.68172247  0.64741478     0.13000
H3552       H  0.60291164  0.63979496  0.60313114     0.13100
Zr3553     Zr  0.94519327  0.80544870  0.78640103     2.17500
O3554       O  0.87994073  0.78752215  0.79466448    -0.51100
O3555       O  0.94830340  0.85111398  0.82243833    -0.74300
O3556       O  0.93928849  0.78292539  0.83566007    -0.81100
O3557       O  0.90625335  0.84830681  0.72069203    -0.82800
O3558       O  0.00097856  0.77434021  0.84785929    -0.78500
O3559       O  0.89536483  0.83871799  0.77100009    -0.90100
O3560       O  0.50394378  0.86806789  0.81585126    -0.76100
O3561       O  0.00882340  0.80866214  0.80415855    -0.85500
O3562       O  0.97440476  0.84164306  0.75300666    -0.85200
O3563       O  0.97050926  0.75380241  0.78079256    -0.72000
O3564       O  0.93880303  0.78360431  0.73548061    -0.84100
Zr3565     Zr  0.55459187  0.77049845  0.71124420     2.26400
Zr3566     Zr  0.03534411  0.75862279  0.79847399     2.06300
Zr3567     Zr  0.96740158  0.82100190  0.70202965     2.10000
Zr3568     Zr  0.53298943  0.84205645  0.76972742     1.78800
O3569       O  0.91556253  0.81607677  0.66544274    -0.92900
O3570       O  0.58547458  0.84726706  0.80578598    -0.40700
O3571       O  0.52763315  0.82113301  0.71813719    -0.77400
O3572       O  0.56299016  0.79252421  0.76176724    -0.96100
O3573       O  0.52920243  0.73357542  0.74542021    -0.89400
O3574       O  0.48988301  0.76640209  0.69526814    -0.92200
C3575       C  0.97278909  0.87261344  0.82930056     1.01600
C3576       C  0.88671102  0.85213775  0.74615808     1.14500
C3577       C  0.96571130  0.78084269  0.85526738     1.05300
O3578       O  0.58749612  0.76184115  0.83274333    -0.94400
O3579       O  0.60038388  0.73305151  0.77721683    -0.90100
O3580       O  0.60917635  0.74180100  0.72645277    -0.83200
C3581       C  0.62042861  0.73086056  0.75183373     1.11900
O3582       O  0.91134534  0.70563449  0.74884114    -0.96300
Zr3583     Zr  0.96685165  0.73292290  0.72894498     1.88900
O3584       O  0.55179695  0.72449133  0.67586471    -0.73000
O3585       O  0.02497676  0.71068338  0.82555779    -0.52200
O3586       O  0.98202102  0.68081649  0.74433644    -0.96900
O3587       O  0.91420139  0.73139604  0.69319031    -0.54100
O3588       O  0.99602011  0.70428733  0.68391186    -0.73500
C3589       C  0.52749125  0.70305335  0.66854988     0.98800
O3590       O  0.61480924  0.79466336  0.69582664    -0.62300
O3591       O  0.47744898  0.86853839  0.68488545    -0.57100
O3592       O  0.55919701  0.79102240  0.66178628    -0.93800
O3593       O  0.49859147  0.80577879  0.65079169    -0.92200
O3594       O  0.51672290  0.89300154  0.75128763    -0.92600
O3595       O  0.58669019  0.87025731  0.74793310    -0.91400
C3596       C  0.53316712  0.79714252  0.64284999     1.17700
H3597       H  0.96276990  0.86155402  0.75483920     0.33600
H3598       H  0.59003704  0.79442300  0.76557287     0.44500
H3599       H  0.48718615  0.75866547  0.67471341     0.38000
H3600       H  0.95674075  0.74020789  0.79439124     0.34500
H3601       H  0.57698063  0.83589334  0.82418721     0.26300
H3602       H  0.00483389  0.69994905  0.81389150     0.32200
H3603       H  0.00449275  0.68260262  0.75786221     0.38100
H3604       H  0.50516858  0.90373996  0.76896169     0.32600
H3605       H  0.46784595  0.88174494  0.70160696     0.31500
H3606       H  0.90007793  0.79866438  0.67305366     0.33100
H3607       H  0.91465752  0.71028319  0.68503985     0.32100
H3608       H  0.60457738  0.85430778  0.74075007     0.36100
H3609       H  0.60904385  0.81676075  0.69420337     0.28800
H3610       H  0.87191125  0.79620635  0.81459770     0.33100
H3611       H  0.89710139  0.72111247  0.76076172     0.35900
H3612       H  0.50557474  0.87019815  0.68622421     0.28500
H3613       H  0.63191487  0.79352782  0.71373498     0.41400
H3614       H  0.57628069  0.75524260  0.85250113     0.31500
H3615       H  0.60680650  0.83505879  0.79739556     0.39100
H3616       H  0.92326473  0.74435074  0.67607725     0.30900
H3617       H  0.04838086  0.69862022  0.82182377     0.31000
H3618       H  0.88218217  0.76527262  0.79837108     0.31300
N3619       N  0.76393327  0.91671402  0.87439861    -0.03200
C3620       C  0.78641520  0.89844145  0.89304178    -0.00600
C3621       C  0.82382716  0.90709688  0.88705826    -0.23500
C3622       C  0.82387884  0.92986835  0.86454628    -0.23700
C3623       C  0.78644599  0.93610048  0.85669671    -0.00700
H3624       H  0.84881809  0.89739804  0.89766569     0.13000
H3625       H  0.84887788  0.94100601  0.85505194     0.13100
N3626       N  0.98338023  0.91542701  0.87362425    -0.03200
C3627       C  0.96115207  0.89725245  0.85440773    -0.00600
C3628       C  0.92357467  0.90424835  0.86162916    -0.23500
C3629       C  0.92332225  0.92673271  0.88451180    -0.23700
C3630       C  0.96059465  0.93361535  0.89246110    -0.00700
H3631       H  0.89857282  0.89422111  0.85113509     0.13000
H3632       H  0.89825177  0.93686903  0.89473196     0.13100
Zr3633     Zr  0.94551405  0.52342247  0.96252469     2.17500
O3634       O  0.88421529  0.54690650  0.95086931    -0.51100
O3635       O  0.94679216  0.97950305  0.92479951    -0.74300
O3636       O  0.94245118  0.54033557  0.91138471    -0.81100
O3637       O  0.89875246  0.98511901  0.53311945    -0.82800
O3638       O  0.00228217  0.55809667  0.90096452    -0.78500
O3639       O  0.88821651  0.99734497  0.97885502    -0.90100
O3640       O  0.50851833  0.95011839  0.93438148    -0.76100
O3641       O  0.00958363  0.51880510  0.94588816    -0.85500
O3642       O  0.96726977  0.98960576  0.99562597    -0.85200
O3643       O  0.97276000  0.57442349  0.96764267    -0.72000
O3644       O  0.93744220  0.54636141  0.51327525    -0.84100
Zr3645     Zr  0.55703079  0.55293498  0.53489256     2.26400
Zr3646     Zr  0.03803477  0.56866583  0.95150130     2.06300
Zr3647     Zr  0.96506980  0.00635052  0.54961880     2.10000
Zr3648     Zr  0.53736373  0.48303050  0.97498325     1.78800
O3649       O  0.91747621  0.01336634  0.58974868    -0.92900
O3650       O  0.58412580  0.48729064  0.93363596    -0.40700
O3651       O  0.52601156  0.50688922  0.52404848    -0.77400
O3652       O  0.56453751  0.53363895  0.98296948    -0.96100
O3653       O  0.53099128  0.58934286  0.50073321    -0.89400
O3654       O  0.49296802  0.55776145  0.55253094    -0.92200
C3655       C  0.97121324  0.95790697  0.91817557     1.01600
C3656       C  0.87978222  0.98209355  0.50731171     1.14500
C3657       C  0.96812654  0.54874319  0.89266341     1.05300
O3658       O  0.58563325  0.55677543  0.91364337    -0.94400
O3659       O  0.59596331  0.59672166  0.96630089    -0.90100
O3660       O  0.61059684  0.58209732  0.51630434    -0.83200
C3661       C  0.61919763  0.59634628  0.98974213     1.11900
O3662       O  0.91018028  0.62154089  0.49541769    -0.96300
Zr3663     Zr  0.96588058  0.59737257  0.51826414     1.88900
O3664       O  0.55314757  0.59872250  0.57100256    -0.73000
O3665       O  0.03190543  0.61952385  0.92957054    -0.52200
O3666       O  0.98973870  0.64521597  0.49678637    -0.96900
O3667       O  0.90879140  0.61225777  0.54625288    -0.54100
O3668       O  0.99454587  0.62565434  0.56401160    -0.73500
C3669       C  0.52914047  0.62040642  0.57816613     0.98800
O3670       O  0.61803284  0.53402484  0.55384274    -0.62300
O3671       O  0.49312444  0.95218308  0.55956954    -0.57100
O3672       O  0.56397603  0.52384209  0.58067863    -0.93800
O3673       O  0.50304838  0.51875077  0.59612726    -0.92200
O3674       O  0.53390234  0.92701289  0.99596144    -0.92600
O3675       O  0.59724644  0.46059993  0.99173198    -0.91400
C3676       C  0.53917544  0.52402860  0.60185181     1.17700
H3677       H  0.95410136  0.97022398  0.99393662     0.33600
H3678       H  0.59141180  0.53271847  0.97801287     0.44500
H3679       H  0.49055553  0.56547145  0.57307288     0.38000
H3680       H  0.96013507  0.58797833  0.95348353     0.34500
H3681       H  0.59857657  0.46796586  0.93360902     0.26300
H3682       H  0.03258167  0.63345629  0.94741418     0.32200
H3683       H  0.98242818  0.64462001  0.47494512     0.38100
H3684       H  0.50633208  0.92296825  0.99891429     0.32600
H3685       H  0.48995996  0.95181738  0.58205464     0.31500
H3686       H  0.92542030  0.03230732  0.60043098     0.33100
H3687       H  0.91734988  0.62873991  0.56015307     0.32100
H3688       H  0.61346965  0.47833692  0.99726337     0.36100
H3689       H  0.63404886  0.53028639  0.53550563     0.28800
H3690       H  0.87441610  0.53604356  0.93261813     0.33100
H3691       H  0.91636348  0.62442878  0.47349161     0.35900
H3692       H  0.47345292  0.93785097  0.55185665     0.28500
H3693       H  0.62896332  0.52797973  0.05234829     0.41400
H3694       H  0.57316466  0.54453503  0.89743703     0.31500
H3695       H  0.56897683  0.48651168  0.91459305     0.39100
H3696       H  0.90310879  0.59460316  0.55968782     0.30900
H3697       H  0.05652960  0.62319172  0.91897707     0.31000
H3698       H  0.89038140  0.56779658  0.94356150     0.31300
N3699       N  0.67134437  0.69125746  0.76708597    -0.03200
C3700       C  0.70492482  0.67970670  0.75585320    -0.00600
C3701       C  0.71347838  0.69619627  0.72958218    -0.23500
C3702       C  0.68504484  0.71808368  0.72574546    -0.23700
C3703       C  0.65905931  0.71474198  0.74962483    -0.00700
H3704       H  0.73565658  0.69089338  0.71311236     0.13000
H3705       H  0.68255516  0.73350435  0.70650809     0.13100
N3706       N  0.66701588  0.63969211  0.97501856    -0.03200
C3707       C  0.65638153  0.61340932  0.49177866    -0.00600
C3708       C  0.68572644  0.60843033  0.51233549    -0.23500
C3709       C  0.71289116  0.63137933  0.50796600    -0.23700
C3710       C  0.70007303  0.65037461  0.48484332    -0.00700
H3711       H  0.68667542  0.59076364  0.52963933     0.13000
H3712       H  0.73756818  0.63534046  0.52225020     0.13100
Zr3713     Zr  0.69437129  0.75283659  0.51520995     2.17500
O3714       O  0.62888071  0.74470582  0.49837383    -0.51100
O3715       O  0.69910047  0.71673712  0.56061564    -0.74300
O3716       O  0.68921787  0.70169240  0.49648193    -0.81100
O3717       O  0.65152551  0.81953195  0.55763478    -0.82800
O3718       O  0.74772293  0.69286735  0.97253935    -0.78500
O3719       O  0.64408351  0.76886698  0.54766400    -0.90100
O3720       O  0.75710022  0.72423265  0.58143942    -0.76100
O3721       O  0.75834965  0.73583417  0.51493990    -0.85500
O3722       O  0.72308586  0.78635242  0.55137804    -0.85200
O3723       O  0.71948044  0.76006516  0.96332636    -0.72000
O3724       O  0.68564327  0.80420006  0.49524166    -0.84100
Zr3725     Zr  0.80484314  0.82863841  0.98220908     2.26400
Zr3726     Zr  0.78492128  0.74342600  0.96493762     2.06300
Zr3727     Zr  0.71408749  0.83806231  0.53214343     2.10000
Zr3728     Zr  0.78695452  0.76809080  0.55169825     1.78800
O3729       O  0.66306940  0.87550129  0.52890413    -0.92900
O3730       O  0.83461527  0.72756728  0.55231804    -0.40700
O3731       O  0.77908313  0.82062610  0.53318649    -0.77400
O3732       O  0.81356826  0.77718432  0.00187338    -0.96100
O3733       O  0.77815216  0.79485012  0.94549627    -0.89400
O3734       O  0.74027619  0.84443203  0.98085207    -0.92200
C3735       C  0.72472473  0.70965712  0.58094647     1.01600
C3736       C  0.63285735  0.79351466  0.56019362     1.14500
C3737       C  0.71470037  0.68390210  0.98392725     1.05300
O3738       O  0.83255094  0.70338762  0.97120990    -0.94400
O3739       O  0.84827801  0.76245919  0.94081768    -0.90100
O3740       O  0.85676720  0.81293278  0.95127243    -0.83200
C3741       C  0.86762454  0.78820512  0.93866388     1.11900
O3742       O  0.65639022  0.79184721  0.91983641    -0.96300
Zr3743     Zr  0.71412990  0.81201119  0.94344387     1.88900
O3744       O  0.80072380  0.86442107  0.93674702    -0.73000
O3745       O  0.76843585  0.72743150  0.91336145    -0.52200
O3746       O  0.72942144  0.79427301  0.89199143    -0.96900
O3747       O  0.65832134  0.84432302  0.94234262    -0.54100
O3748       O  0.74265207  0.85791947  0.91519781    -0.73500
C3749       C  0.77539851  0.87215165  0.91642122     0.98800
O3750       O  0.86725500  0.83867007  0.00472068    -0.62300
O3751       O  0.73292043  0.85683055  0.58208001    -0.57100
O3752       O  0.80796339  0.88053987  0.99797402    -0.93800
O3753       O  0.74867642  0.88971168  0.52141588    -0.92200
O3754       O  0.78746820  0.78601883  0.60443752    -0.92600
O3755       O  0.84973715  0.78480129  0.56881444    -0.91400
C3756       C  0.78044227  0.89907203  0.50800601     1.17700
H3757       H  0.71188796  0.78389197  0.57158531     0.33600
H3758       H  0.84066572  0.77315402  0.00247909     0.44500
H3759       H  0.73716693  0.86506757  0.97344821     0.38000
H3760       H  0.70544225  0.74654508  0.94995009     0.34500
H3761       H  0.82028217  0.70852681  0.54788812     0.26300
H3762       H  0.78877124  0.73620276  0.90022386     0.32200
H3763       H  0.71960015  0.81034742  0.87819620     0.38100
H3764       H  0.77239612  0.80504886  0.60433902     0.32600
H3765       H  0.72334010  0.84131392  0.59670407     0.31500
H3766       H  0.66792840  0.88970700  0.54611170     0.33100
H3767       H  0.66034105  0.85450824  0.92221452     0.32100
H3768       H  0.84836860  0.80739754  0.56925210     0.36100
H3769       H  0.85281442  0.84985899  0.52753758     0.28800
H3770       H  0.62188193  0.72364483  0.50460435     0.33100
H3771       H  0.65472321  0.80152857  0.89941562     0.35900
H3772       H  0.76104610  0.85467106  0.58233647     0.28500
H3773       H  0.86181519  0.84488534  0.02607929     0.41400
H3774       H  0.85218942  0.70696776  0.95525375     0.31500
H3775       H  0.85067015  0.73090762  0.53393205     0.39100
H3776       H  0.66410049  0.86034520  0.95763249     0.30900
H3777       H  0.77286275  0.70509382  0.91320844     0.31000
H3778       H  0.63035687  0.74420811  0.47579348     0.31300
N3779       N  0.83451411  0.89148980  0.72936467    -0.03200
C3780       C  0.80671615  0.90862154  0.74344910    -0.00600
C3781       C  0.80758130  0.90162248  0.77422195    -0.23500
C3782       C  0.83613369  0.88013966  0.77852827    -0.23700
C3783       C  0.85289829  0.87400523  0.75025957    -0.00700
H3784       H  0.79079991  0.91218450  0.79204481     0.13000
H3785       H  0.84440344  0.87068827  0.80038219     0.13100
N3786       N  0.82246149  0.94485375  0.52003929    -0.03200
C3787       C  0.79362461  0.93189049  0.00260156    -0.00600
C3788       C  0.79076375  0.94538562  0.97414436    -0.23500
C3789       C  0.81843812  0.96821743  0.97253933    -0.23700
C3790       C  0.83878772  0.96825535  0.99988608    -0.00700
H3791       H  0.77333857  0.93749883  0.95534302     0.13000
H3792       H  0.82477055  0.98176865  0.95242406     0.13100
C3793       C  0.76236136  0.91340333  0.61177162    -0.17600
C3794       C  0.76373032  0.89804821  0.63945492    -0.19800
C3795       C  0.79918019  0.89135287  0.65221798     0.20900
C3796       C  0.83334037  0.89717904  0.63597614    -0.02700
C3797       C  0.83168478  0.90995271  0.60707842    -0.05700
C3798       C  0.79622319  0.91974786  0.59596634     0.21200
C3799       C  0.86565225  0.91486505  0.59019102     0.19300
C3800       C  0.90098402  0.90719526  0.60277218    -0.17200
C3801       C  0.90283301  0.89784356  0.63315931    -0.19400
C3802       C  0.86912714  0.89388801  0.65006501     0.20800
C3803       C  0.87007114  0.89078484  0.68154002    -0.32500
C3804       C  0.83588942  0.88680890  0.69760082     0.01500
C3805       C  0.80125217  0.88322309  0.68249646    -0.23800
C3806       C  0.79525390  0.93570958  0.56906235    -0.28400
C3807       C  0.82806526  0.93793576  0.55097172     0.07200
C3808       C  0.86332238  0.92763011  0.56122107    -0.27000
H3809       H  0.73506180  0.92021388  0.60257292     0.11900
H3810       H  0.73751413  0.89383717  0.65203124     0.13000
H3811       H  0.92713772  0.91031130  0.58988334     0.12100
H3812       H  0.93041034  0.89466496  0.64367276     0.11400
H3813       H  0.89653994  0.89474293  0.69356979     0.16700
H3814       H  0.77524672  0.87945442  0.69556630     0.12700
H3815       H  0.76816538  0.94394617  0.56046953     0.15500
H3816       H  0.88823492  0.92876467  0.54651341     0.15300
C3817       C  0.64159017  0.71672840  0.90062903    -0.17600
C3818       C  0.64618005  0.72441358  0.87002333    -0.19800
C3819       C  0.64556521  0.70144299  0.84773885     0.20900
C3820       C  0.63831602  0.67078013  0.85582153    -0.02700
C3821       C  0.63681105  0.66288174  0.88655900    -0.05700
C3822       C  0.63910254  0.68596970  0.90905268     0.21200
C3823       C  0.63792518  0.63178004  0.89472002     0.19300
C3824       C  0.63486995  0.60891098  0.87241954    -0.17200
C3825       C  0.63323082  0.61692217  0.84172587    -0.19400
C3826       C  0.63708873  0.64760510  0.83333276     0.20800
C3827       C  0.64378749  0.65524053  0.80311437    -0.32500
C3828       C  0.65583799  0.68471584  0.79605630     0.01500
C3829       C  0.65561529  0.70799499  0.81790738    -0.23800
C3830       C  0.64353273  0.67772970  0.93936107    -0.28400
C3831       C  0.65041064  0.64732179  0.94663187     0.07200
C3832       C  0.64650429  0.62430236  0.92456323    -0.27000
H3833       H  0.64335762  0.73443785  0.91781429     0.11900
H3834       H  0.65169853  0.74804022  0.86391523     0.13000
H3835       H  0.63566986  0.58494378  0.87855849     0.12100
H3836       H  0.63228435  0.59911964  0.82455600     0.11400
H3837       H  0.64242027  0.63793676  0.78560248     0.16700
H3838       H  0.66489197  0.73087742  0.81171094     0.12700
H3839       H  0.64557877  0.69508357  0.95669041     0.15500
H3840       H  0.65286879  0.60074900  0.93024964     0.15300
C3841       C  0.60469214  0.91338495  0.81843064    -0.17600
C3842       C  0.64447199  0.91205721  0.81819323    -0.19800
C3843       C  0.66455651  0.91265755  0.84585751     0.20900
C3844       C  0.64452422  0.91230499  0.87391856    -0.02700
C3845       C  0.60483006  0.90981565  0.87401415    -0.05700
C3846       C  0.58476555  0.91200575  0.84627815     0.21200
C3847       C  0.58514771  0.90584103  0.90194620     0.19300
C3848       C  0.60490456  0.90707690  0.92966316    -0.17200
C3849       C  0.64393660  0.91326872  0.92965972    -0.19400
C3850       C  0.66407214  0.91465789  0.90192766     0.20800
C3851       C  0.70351727  0.91746822  0.90169170    -0.32500
C3852       C  0.72353958  0.91615299  0.87401918     0.01500
C3853       C  0.70424457  0.91385440  0.84613958    -0.23800
C3854       C  0.54513792  0.91321722  0.84718511    -0.28400
C3855       C  0.52573038  0.90747070  0.87466799     0.07200
C3856       C  0.54579293  0.90214707  0.90162846    -0.27000
H3857       H  0.58951228  0.91457018  0.79693091     0.11900
H3858       H  0.65951705  0.91185122  0.79648378     0.13000
H3859       H  0.58995794  0.90457460  0.95127424     0.12100
H3860       H  0.65868986  0.91536725  0.95129254     0.11400
H3861       H  0.71891569  0.91969455  0.92301547     0.16700
H3862       H  0.72021819  0.91304479  0.82485764     0.12700
H3863       H  0.52934239  0.91855017  0.82665053     0.15500
H3864       H  0.53042242  0.89699561  0.92258309     0.15300
C3865       C  0.89715588  0.72096050  0.62212191    -0.17600
C3866       C  0.85751856  0.72079635  0.62475952    -0.19800
C3867       C  0.83756593  0.69298055  0.62460945     0.20900
C3868       C  0.85743975  0.66513936  0.62202209    -0.02700
C3869       C  0.89724037  0.66521051  0.62251108    -0.05700
C3870       C  0.91719897  0.69329785  0.62209179     0.21200
C3871       C  0.91701990  0.63720425  0.62341636     0.19300
C3872       C  0.89692088  0.60944724  0.62221610    -0.17200
C3873       C  0.85735323  0.60948896  0.61900954    -0.19400
C3874       C  0.83749537  0.63723084  0.61914637     0.20800
C3875       C  0.79796469  0.63771967  0.61683651    -0.32500
C3876       C  0.77826072  0.66499003  0.62194325     0.01500
C3877       C  0.79803800  0.69234460  0.62689796    -0.23800
C3878       C  0.95684129  0.69313457  0.62207071    -0.28400
C3879       C  0.97634833  0.66538952  0.62376509     0.07200
C3880       C  0.95660435  0.63755848  0.62486312    -0.27000
H3881       H  0.91219934  0.74265271  0.62135099     0.11900
H3882       H  0.84245330  0.74233490  0.62616673     0.13000
H3883       H  0.91188644  0.58781685  0.62271750     0.12100
H3884       H  0.84222945  0.58789887  0.61724408     0.11400
H3885       H  0.78232762  0.61683634  0.61209945     0.16700
H3886       H  0.78252990  0.71310076  0.63206589     0.12700
H3887       H  0.97265581  0.71446097  0.62099246     0.15500
H3888       H  0.97225709  0.61628359  0.62623543     0.15300
C3889       C  0.98983402  0.68077343  0.88376506    -0.17600
C3890       C  0.98993383  0.65238193  0.86965301    -0.19800
C3891       C  0.95525276  0.63775806  0.86339033     0.20900
C3892       C  0.92021352  0.65173600  0.87036931    -0.02700
C3893       C  0.92017650  0.68132404  0.88182033    -0.05700
C3894       C  0.95509596  0.69544016  0.88938021     0.21200
C3895       C  0.88537071  0.69706021  0.88495435     0.19300
C3896       C  0.85081579  0.68204014  0.87899719    -0.17200
C3897       C  0.85070932  0.65120520  0.87092288    -0.19400
C3898       C  0.88533715  0.63600237  0.86623164     0.20800
C3899       C  0.88618171  0.60515831  0.85839959    -0.32500
C3900       C  0.92121056  0.59164882  0.85138153     0.01500
C3901       C  0.95505589  0.60867791  0.85163639    -0.23800
C3902       C  0.95470777  0.72473607  0.90083302    -0.28400
C3903       C  0.92089376  0.74154714  0.90038075     0.07200
C3904       C  0.88622014  0.72789090  0.89252821    -0.27000
H3905       H  0.01679167  0.69171750  0.88918060     0.11900
H3906       H  0.01696057  0.64146109  0.86459059     0.13000
H3907       H  0.82400929  0.69394642  0.88090728     0.12100
H3908       H  0.82373805  0.63957083  0.86754901     0.11400
H3909       H  0.86027166  0.59162068  0.85897927     0.16700
H3910       H  0.98191046  0.59797469  0.84553840     0.12700
H3911       H  0.98138509  0.73587464  0.90681006     0.15500
H3912       H  0.86065184  0.74148113  0.89052580     0.15300
C3913       C  0.51621968  0.89906429  0.62498116    -0.17600
C3914       C  0.51755664  0.92758941  0.63865558    -0.19800
C3915       C  0.55289256  0.94176026  0.64318713     0.20900
C3916       C  0.58722640  0.92669699  0.63590554    -0.02700
C3917       C  0.58586110  0.89699353  0.62500639    -0.05700
C3918       C  0.55021573  0.88396496  0.61806842     0.21200
C3919       C  0.61998988  0.88065089  0.62014891     0.19300
C3920       C  0.65528093  0.89508503  0.62456899    -0.17200
C3921       C  0.65656641  0.92608538  0.63212345    -0.19400
C3922       C  0.62261931  0.94201247  0.63755150     0.20800
C3923       C  0.62273452  0.97341807  0.64217158    -0.32500
C3924       C  0.58548720  0.48736163  0.64893254     0.01500
C3925       C  0.55432865  0.97180026  0.65208961    -0.23800
C3926       C  0.54909898  0.85572076  0.60468334    -0.28400
C3927       C  0.58209808  0.83810320  0.60304802     0.07200
C3928       C  0.61768526  0.85019130  0.61110949    -0.27000
H3929       H  0.48882271  0.88858898  0.62019745     0.11900
H3930       H  0.49113323  0.93932371  0.64385800     0.13000
H3931       H  0.68158176  0.88279407  0.62080140     0.12100
H3932       H  0.68382421  0.93761604  0.63369037     0.11400
H3933       H  0.64869472  0.98651511  0.63872862     0.16700
H3934       H  0.52808426  0.98379786  0.65745274     0.12700
H3935       H  0.52180191  0.84597402  0.59813781     0.15500
H3936       H  0.64291010  0.83599796  0.61105315     0.15300
loop_ 
_geom_bond_atom_site_label_1 
_geom_bond_atom_site_label_2 
_geom_bond_distance 
_geom_bond_site_symmetry_2 
_ccdc_geom_bond_type 
N1            C5   1.355       .  A
N1            C2   1.371       .  A
N1          C483   1.408       .  S
C2            C3   1.380       .  A
C2          C152   1.519       .  S
C3            C4   1.390       .  A
C3            H6   1.081       .  S
C4            C5   1.394       .  A
C4            H7   1.082       .  S
C5          C292   1.529       .  S
N8           C12   1.369       .  A
N8            C9   1.376       .  A
N8          C480   1.409   1_545  S
C9           C10   1.380       .  A
C9          C232   1.523       .  S
C10          C11   1.388       .  A
C10          H13   1.083       .  S
C11          C12   1.396       .  A
C11          H14   1.082       .  S
C12          C38   1.553       .  S
Zr15         O16   2.440       .  S
Zr15         O17   2.542       .  S
Zr15         O18   2.393       .  S
Zr15         O21   2.397       .  S
Zr15         O23   2.372       .  S
Zr15         O24   2.371       .  S
Zr15         O25   2.444       .  S
Zr15         O26   2.437       .  S
O16          H72   0.991       .  S
O16          H80   0.989       .  S
O17          C37   1.305       .  A
O18          C39   1.274       .  A
O19       Zr1013   2.606   1_545  S
O19          C38   1.319       .  A
O20         Zr28   2.584       .  S
O20          C39   1.315       .  A
O21          C38   1.278       .  A
O22         Zr30   2.522       .  S
O22          C37   1.295       .  A
O23         Zr28   2.413       .  S
O23         Zr30   2.358       .  S
O24         Zr30   2.379       .  S
O24       Zr1013   2.432   1_545  S
O24          H59   0.965       .  S
O25         Zr28   2.420       .  S
O25         Zr45   2.447       .  S
O25          H62   0.965       .  S
O26         Zr45   2.441       .  S
O26       Zr1013   2.417   1_545  S
Zr27         O52   2.443   1_545  S
Zr27         O42   2.368       .  S
Zr27       O1030   2.541   1_545  S
Zr27       O1038   2.373   1_545  S
Zr27         O33   2.424       .  S
Zr27         O34   2.433       .  S
Zr27         O35   2.374       .  S
Zr27       O1020   2.373   1_545  S
Zr28         O47   2.435       .  S
Zr28         O40   2.435       .  S
Zr28         O41   2.588       .  S
Zr28         O34   2.408       .  S
Zr28         O35   2.421       .  S
Zr29         O31   2.436       .  S
Zr29         O53   2.433       .  S
Zr29         O55   2.606       .  S
Zr29       O1003   2.592       .  S
Zr29         O36   2.408       .  S
Zr29       O1008   2.431       .  S
Zr29       O1010   2.409       .  S
Zr29       O1017   2.410       .  S
Zr30         O56   2.437       .  S
Zr30         O57   2.434       .  S
Zr30         O32   2.441       .  S
Zr30         O33   2.443       .  S
Zr30         O34   2.430       .  S
O31          H68   0.991       .  S
O32          H63   0.990       .  S
O32          H77   0.989       .  S
O33       Zr1013   2.407   1_545  S
O34          H60   0.964       .  S
O35         Zr45   2.375       .  S
O36       Zr1011   2.370       .  S
O36       Zr1029   2.353       .  S
O36          H61   0.964       .  S
C37          C96   1.583       .  S
C39         C256   1.525       .  S
O40          H76   0.990       .  S
O41          C43   1.315       .  A
O42          C43   1.271       .  A
C43          C92   1.535       .  S
O44         Zr45   2.435       .  S
O44          H73   0.989       .  S
Zr45         O48   2.435       .  S
Zr45       O1033   2.427   1_545  S
Zr45       O1034   2.550   1_545  S
Zr45       O1020   2.355   1_545  S
O46       Zr1011   2.522       .  S
O46          C51   1.302       .  A
O47          H64   0.989       .  S
O47          H79   0.990       .  S
O48          H65   0.990       .  S
O49       Zr1029   2.423       .  S
O49          H69   0.988       .  S
O49          H78   0.989       .  S
O50       Zr1029   2.567       .  S
O50          C51   1.308       .  A
C51         C179   1.585       .  S
O52          H71   0.990   1_565  S
O52          H75   0.991       .  S
O53          H67   0.990       .  S
O53        H1058   0.990       .  S
O54       Zr1011   2.369       .  S
O54          C58   1.270       .  A
O55          C58   1.320       .  A
O56          H66   0.990       .  S
O57          H70   0.990       .  S
C58         C336   1.523       .  S
H74        O1037   0.990       .  S
N81          C85   1.369       .  A
N81          C82   1.356       .  A
N81         C459   1.409       .  S
C82          C83   1.396       .  A
C82         C297   1.528       .  S
C83          C84   1.388       .  A
C83          H86   1.082       .  S
C84          C85   1.378       .  A
C84          H87   1.082       .  S
C85         C133   1.509       .  S
N88          C92   1.359       .  A
N88          C89   1.370       .  A
N88         C456   1.410       .  S
C89        C1074   1.379       .  A
C89         C213   1.509       .  S
C90          C91   1.392       .  A
C90        C1073   1.380       .  A
C90          H93   1.080       .  S
C91        C1076   1.396       .  A
C91          H94   1.083       .  S
C92        C1075   1.396       .  A
N95          C99   1.393       .  A
N95          C96   1.395       .  A
N95         C432   1.419       .  S
C96          C97   1.386       .  A
C97          C98   1.399       .  A
C97         H100   1.082       .  S
C98          C99   1.387       .  A
C98         H101   1.081       .  S
C99         C291   1.587       .  S
N102        C106   1.395       .  A
N102        C103   1.393       .  A
N102       C2403   1.417   1_455  S
C103        C104   1.386       .  A
C103        C145   1.587       .  S
C104        C105   1.401       .  A
C104        H107   1.081       .  S
C105        C106   1.388       .  A
C105        H108   1.082       .  S
C106        C225   1.590       .  S
Zr109       O110   2.442       .  S
Zr109       O111   2.558       .  S
Zr109       O112   2.376       .  S
Zr109       O115   2.387       .  S
Zr109       O117   2.372       .  S
Zr109       O118   2.377       .  S
Zr109       O119   2.442       .  S
Zr109       O120   2.432       .  S
O110        H166   0.990       .  S
O110        H174   0.991       .  S
O111        C131   1.309       .  A
O112        C133   1.265       .  A
O113       Zr123   2.606       .  S
O113        C132   1.319       .  A
O114       Zr122   2.566       .  S
O114        C133   1.308       .  A
O115        C132   1.276       .  A
O116       Zr124   2.542       .  S
O116       C2099   1.301   1_455  A
O117       Zr122   2.403       .  S
O117      Zr2092   2.357       .  S
O118       Zr123   2.424       .  S
O118      Zr2092   2.378       .  S
O118        H153   0.966       .  S
O119       Zr122   2.406       .  S
O119       Zr139   2.435       .  S
O119        H156   0.965       .  S
O120       Zr123   2.402       .  S
O120       Zr139   2.439       .  S
Zr121       O146   2.443       .  S
Zr121       O140   2.544       .  S
Zr121       O148   2.403       .  S
Zr121       O136   2.409       .  S
Zr121       O127   2.436       .  S
Zr121       O128   2.439       .  S
Zr121       O129   2.378       .  S
Zr121       O130   2.385   1_455  S
Zr122       O141   2.434       .  S
Zr122      O2102   2.430       .  S
Zr122      O2103   2.552       .  S
Zr122      O2096   2.402       .  S
Zr122      O2097   2.419       .  S
Zr123       O125   2.436       .  S
Zr123      O2115   2.423       .  S
Zr123      O2117   2.602       .  S
Zr123      O2095   2.407       .  S
Zr123      O2098   2.415       .  S
Zr124       O150   2.438       .  S
Zr124       O151   2.436       .  S
Zr124       O126   2.436       .  S
Zr124       O127   2.441       .  S
Zr124       O128   2.430       .  S
Zr124      O2085   2.359       .  S
Zr124      O2086   2.372   1_455  S
O125        H162   0.990       .  S
O126        H157   0.990       .  S
O126        H171   0.989       .  S
O127      Zr2091   2.414   1_455  S
O128      Zr2090   2.400       .  S
O128        H154   0.970       .  S
O129      Zr2090   2.423       .  S
O129      Zr2107   2.377   1_455  S
O130      Zr2091   2.431       .  S
O130      Zr2107   2.354       .  S
O130        H155   0.966       .  S
C131        C183   1.597       .  S
C131       O2084   1.301       .  A
C132        C339   1.544       .  S
O134      Zr2090   2.433       .  S
O134        H170   0.990       .  S
O135      Zr2090   2.550       .  S
O135        C137   1.309       .  A
O136        C137   1.279       .  A
C137        C259   1.530       .  S
O138       Zr139   2.441       .  S
O138        H167   0.990       .  S
Zr139       O142   2.436       .  S
Zr139       O143   2.427       .  S
Zr139       O144   2.551       .  S
Zr139      O2097   2.374       .  S
Zr139      O2098   2.361       .  S
O140        C145   1.306       .  A
O141        H158   0.990       .  S
O141        H173   0.990       .  S
O142        H159   0.990       .  S
O143        H163   0.989       .  S
O143        H172   0.989       .  S
O144       C2113   1.304       .  A
C145       O2112   1.304   1_455  A
O146        H165   0.990       .  S
O146        H169   0.990       .  S
O147      Zr2091   2.432       .  S
O147        H161   0.990   1_655  S
O147        H168   0.989       .  S
O148        C152   1.269       .  A
O149      Zr2091   2.570       .  S
O149        C152   1.308   1_655  A
O150        H160   0.990       .  S
O151        H164   0.990       .  S
N175        C179   1.390       .  A
N175        C176   1.391       .  A
N175        C408   1.414       .  S
C176        C177   1.385       .  A
C176        C305   1.583       .  S
C177        C178   1.401       .  A
C177        H180   1.081       .  S
C178        C179   1.388       .  A
C178        H181   1.082       .  S
N182        C186   1.398       .  A
N182        C183   1.397       .  A
N182       C2379   1.415       .  S
C183        C184   1.387       .  A
C184        C185   1.404       .  A
C184        H187   1.082       .  S
C185        C186   1.385       .  A
C185        H188   1.081       .  S
C186        C211   1.600       .  S
Zr189       O190   2.442       .  S
Zr189       O192   2.367       .  S
Zr189      O1175   2.536   1_545  S
Zr189      O1179   2.375   1_545  S
Zr189       O197   2.376       .  S
Zr189       O199   2.435       .  S
Zr189      O1182   2.370   1_545  S
Zr189       O692   2.429       .  S
O190        H246   0.991       .  S
O190        H254   0.990       .  S
O191      Zr1173   2.560       .  S
O191        C211   1.308       .  A
O192        C213   1.266       .  A
O193       Zr203   2.584       .  S
O193        C212   1.315       .  A
O194       Zr202   2.577       .  S
O194        C213   1.312       .  A
O195      Zr1173   2.361       .  S
O195        C704   1.271       .  A
O196      Zr1188   2.541       .  S
O196       C2179   1.301   1_455  A
O197       Zr202   2.408       .  S
O197      Zr2172   2.358   1_545  S
O198      Zr1173   2.378       .  S
O198       Zr695   2.425       .  S
O198      Zr3156   2.368       .  S
O198        H233   0.966       .  S
O199       Zr202   2.409       .  S
O199       Zr711   2.433       .  S
O199        H236   0.966       .  S
O200       Zr219   2.438       .  S
O200       Zr681   2.428   1_554  S
O200      Zr1187   2.407       .  S
Zr201       O226   2.442       .  S
Zr201       O220   2.543       .  S
Zr201       O228   2.352       .  S
Zr201       O216   2.387       .  S
Zr201       O207   2.430       .  S
Zr201       O209   2.372       .  S
Zr201       O210   2.373   1_455  S
Zr201       O700   2.429   1_554  S
Zr202       O221   2.434       .  S
Zr202      O2182   2.430       .  S
Zr202      O2183   2.574       .  S
Zr202      O2176   2.402       .  S
Zr202      O2669   2.420       .  S
Zr203       O205   2.436       .  S
Zr203      O2195   2.436       .  S
Zr203      O3181   2.561       .  S
Zr203       O690   2.417   1_554  S
Zr203      O1184   2.408       .  S
Zr203      O3159   2.421       .  S
Zr203      O3162   2.433       .  S
Zr204       O231   2.436       .  S
Zr204       O206   2.440       .  S
Zr204      O1214   2.436       .  S
Zr204      O1180   2.554       .  S
Zr204       O208   2.442   1_565  S
Zr204      O2165   2.356   1_565  S
Zr204      O3150   2.380   1_455  S
Zr204       O699   2.449   1_565  S
O205        H242   0.991       .  S
O206        H237   0.990       .  S
O206        H251   0.989       .  S
O207      Zr3155   2.406   1_455  S
O207       Zr696   2.452   1_544  S
O208       Zr693   2.442       .  S
O208      Zr2170   2.412       .  S
O208        H234   0.965       .  S
O209      Zr2662   2.421   1_554  S
O209      Zr2187   2.381   1_455  S
O210      Zr3155   2.405       .  S
O210      Zr2187   2.356       .  S
O210        H235   0.964       .  S
C211       O2164   1.300       .  A
C212        C838   1.528   1_554  S
C212        O687   1.270   1_554  A
O214      Zr2170   2.431       .  S
O214        H250   0.990       .  S
O215      Zr2170   2.556       .  S
O215        C217   1.311       .  A
O216        C709   1.273   1_554  A
C217        C755   1.531       .  S
C217        O708   1.278       .  A
O218       Zr219   2.439       .  S
O218        H247   0.990   1_554  S
Zr219       O222   2.436   1_554  S
Zr219       O223   2.433       .  S
Zr219       O224   2.546       .  S
Zr219       O691   2.445   1_554  S
Zr219      O2177   2.375       .  S
Zr219      O2178   2.353       .  S
O220        C225   1.305       .  A
O221        H238   0.990       .  S
O221        H253   0.990       .  S
O222        H239   0.990   1_556  S
O223        H243   0.990       .  S
O223        H252   0.990       .  S
O224       C2193   1.302       .  A
C225       O2192   1.304   1_455  A
O226        H245   0.991       .  S
O226        H741   0.990       .  S
O227      Zr2171   2.430       .  S
O227        H241   0.989       .  S
O227        H248   0.990   1_655  S
O228        C232   1.267       .  A
O229      Zr3155   2.612       .  S
O229        C232   1.323   1_655  A
O230      Zr1188   2.437       .  S
O230        H240   0.990       .  S
O231        H244   0.990       .  S
H249        O718   0.991       .  S
N255        C259   1.358       .  A
N255        C256   1.377       .  A
N255        C384   1.414       .  S
C256        C257   1.386       .  A
C257        C258   1.394       .  A
C257        H260   1.082       .  S
C258        C259   1.388       .  A
C258        H261   1.082       .  S
N262        C758   1.374       .  A
N262        C755   1.360       .  A
N262        C387   1.415       .  S
C263        N754   1.353       .  A
C263        C264   1.386   1_556  A
C263        C709   1.524       .  S
C264        C265   1.393       .  A
C264        H267   1.082       .  S
C265        C266   1.387   1_554  A
C265        H268   1.082       .  S
C266        N754   1.372       .  A
C266        C785   1.514       .  S
Zr269       O270   2.438       .  S
Zr269       O271   2.528       .  S
Zr269       O272   2.384   1_554  S
Zr269       O275   2.378       .  S
Zr269       O277   2.374       .  S
Zr269       O278   2.376       .  S
Zr269       O280   2.428   1_554  S
Zr269       O771   2.436   1_554  S
O270        H326   0.990       .  S
O270        H334   0.989   1_554  S
O271        C291   1.302       .  A
O272        C785   1.274       .  A
O273       Zr283   2.573       .  S
O273        C292   1.312       .  A
O274       Zr282   2.573       .  S
O274        C293   1.313       .  A
O275        C292   1.274       .  A
O276       Zr284   2.547       .  S
O276        C291   1.302       .  A
O277       Zr284   2.355       .  S
O277       Zr774   2.418   1_554  S
O278       Zr283   2.423       .  S
O278       Zr284   2.377       .  S
O278        H313   0.968       .  S
O279       Zr282   2.417       .  S
O279       Zr299   2.444       .  S
O279       Zr761   2.435       .  S
O279        H316   0.965       .  S
O280       Zr283   2.399   1_556  S
O280       Zr791   2.436       .  S
Zr281       O306   2.443       .  S
Zr281       O300   2.548       .  S
Zr281       O308   2.384       .  S
Zr281       O296   2.372       .  S
Zr281       O288   2.437       .  S
Zr281       O289   2.371       .  S
Zr281       O290   2.375       .  S
Zr281       O779   2.429       .  S
Zr282       O301   2.434       .  S
Zr282       O294   2.438       .  S
Zr282       O295   2.582       .  S
Zr282       O288   2.410       .  S
Zr282       O289   2.413       .  S
Zr282       O769   2.413       .  S
Zr283       O285   2.434       .  S
Zr283       O307   2.432       .  S
Zr283       O309   2.573       .  S
Zr283       O782   2.418   1_554  S
Zr283       O287   2.314       .  S
Zr284       O310   2.437       .  S
Zr284       O311   2.438       .  S
Zr284       O286   2.438       .  S
Zr284       O780   2.430       .  S
Zr284       O287   2.349       .  S
O285        H322   0.990       .  S
O286        H317   0.989       .  S
O286        H331   0.990       .  S
O287       Zr773   2.326   1_554  S
O288       Zr776   2.437       .  S
O288        H314   0.967       .  S
O289       Zr299   2.370       .  S
O290       Zr299   2.351       .  S
O290       Zr775   2.422       .  S
O290        H315   0.966       .  S
C293        C758   1.514       .  S
C293        O764   1.271       .  A
O294        H330   0.990       .  S
O295        C297   1.314       .  A
O296        C297   1.273       .  A
O298       Zr299   2.433       .  S
O298        H327   0.990       .  S
Zr299       O302   2.436       .  S
Zr299       O303   2.426       .  S
Zr299       O304   2.541       .  S
Zr299       O772   2.435       .  S
O300        C305   1.308       .  A
O301        H318   0.990       .  S
O301        H333   0.990       .  S
O302        H319   0.990       .  S
O303        H323   0.989       .  S
O303        H332   0.989       .  S
O304        C305   1.301       .  A
O306        H329   0.990       .  S
O306        H817   0.990       .  S
O307        H321   0.990       .  S
O307        H328   0.989       .  S
O308        C804   1.269       .  A
O309        C312   1.306       .  A
O310        H320   0.989       .  S
O311        H324   0.990       .  S
C312        C835   1.520       .  S
C312        O800   1.264       .  A
H325        O798   0.990       .  S
N335        C339   1.362       .  A
N335        C336   1.370       .  A
N335        C360   1.400       .  S
C336        C337   1.381       .  A
C337        C338   1.391       .  A
C337        H340   1.082       .  S
C338        C339   1.396       .  A
C338        H341   1.082       .  S
N342        C838   1.354   1_554  A
N342        C835   1.370       .  A
N342        C363   1.404       .  S
C343        N834   1.369       .  A
C343        C344   1.380       .  A
C343        C804   1.513       .  S
C344        C345   1.387       .  A
C344        H347   1.081       .  S
C345        C346   1.395       .  A
C345        H348   1.082       .  S
C346        N834   1.353       .  A
C346        C704   1.526       .  S
C349        C350   1.384       .  A
C349        C354   1.397       .  A
C349        H365   1.084       .  S
C350        C351   1.398       .  A
C350        H366   1.084       .  S
C351        C361   1.367       .  A
C351        C352   1.406       .  A
C352        C358   1.412       .  A
C352        C353   1.382       .  A
C353        C355   1.409       .  A
C353        C354   1.409       .  A
C354        C362   1.368       .  A
C355        C364   1.387       .  A
C355        C356   1.401       .  A
C356        C357   1.394       .  A
C356        H367   1.082       .  S
C357        C358   1.400       .  A
C357        H368   1.081       .  S
C358        C359   1.389       .  A
C359        C360   1.394       .  A
C359        H369   1.083       .  S
C360        C361   1.395       .  A
C361        H370   1.085       .  S
C362        C363   1.393       .  A
C362        H371   1.085       .  S
C363        C364   1.397       .  A
C364        H372   1.082       .  S
C373        C374   1.391       .  A
C373        C378   1.398       .  A
C373        H389   1.081       .  S
C374        C375   1.401       .  A
C374        H390   1.083       .  S
C375        C385   1.382       .  A
C375        C376   1.408       .  A
C376        C382   1.413       .  A
C376        C377   1.391       .  A
C377        C379   1.407       .  A
C377        C378   1.412       .  A
C378        C386   1.387       .  A
C379        C388   1.378       .  A
C379        C380   1.399       .  A
C380        C381   1.388       .  A
C380        H391   1.083       .  S
C381        C382   1.397       .  A
C381        H392   1.082       .  S
C382        C383   1.384       .  A
C383        C384   1.389       .  A
C383        H393   1.076       .  S
C384        C385   1.401       .  A
C385        H394   1.084       .  S
C386        C387   1.394       .  A
C386        H395   1.075       .  S
C387        C388   1.397       .  A
C388        H396   1.084       .  S
C397        C398   1.395       .  A
C397        C402   1.401       .  A
C397        H413   1.084       .  S
C398        C399   1.402       .  A
C398        H414   1.084       .  S
C399        C409   1.389       .  A
C399        C400   1.410       .  A
C400        C406   1.411       .  A
C400        C401   1.395       .  A
C401        C403   1.408       .  A
C401        C402   1.409       .  A
C402        C410   1.391       .  A
C403        C412   1.388       .  A
C403        C404   1.400       .  A
C404        C405   1.393       .  A
C404        H415   1.084       .  S
C405        C406   1.401       .  A
C405        H416   1.083       .  S
C406        C407   1.389       .  A
C407        C408   1.397       .  A
C407        H417   1.084       .  S
C408        C409   1.399       .  A
C409        H418   1.084       .  S
C410        C411   1.399       .  A
C410        H419   1.083       .  S
C411       N2150   1.419   1_455  S
C411        C412   1.398       .  A
C412        H420   1.083       .  S
C421        C422   1.393       .  A
C421        C426   1.401       .  A
C421        H437   1.083       .  S
C422        C423   1.401       .  A
C422        H438   1.083       .  S
C423        C433   1.390       .  A
C423        C424   1.410       .  A
C424        C430   1.409       .  A
C424        C425   1.397       .  A
C425        C427   1.411       .  A
C425        C426   1.410       .  A
C426        C434   1.388       .  A
C427        C436   1.392       .  A
C427        C428   1.401       .  A
C428        C429   1.394       .  A
C428        H439   1.083       .  S
C429        C430   1.401       .  A
C429        H440   1.083       .  S
C430        C431   1.390       .  A
C431        C432   1.398       .  A
C431        H441   1.083       .  S
C432        C433   1.398       .  A
C433        H442   1.084       .  S
C434        C435   1.398       .  A
C434        H443   1.084       .  S
C435       N2070   1.417       .  S
C435        C436   1.398       .  A
C436        H444   1.084       .  S
C445        C446   1.385       .  A
C445        C450   1.398       .  A
C445        H461   1.084       .  S
C446        C447   1.398       .  A
C446        H462   1.084       .  S
C447        C457   1.372       .  A
C447        C448   1.408       .  A
C448        C454   1.410       .  A
C448        C449   1.387       .  A
C449        C451   1.412       .  A
C449        C450   1.407       .  A
C450        C458   1.371       .  A
C451        C460   1.393       .  A
C451        C452   1.401       .  A
C452        C453   1.396       .  A
C452        H463   1.081       .  S
C453        C454   1.401       .  A
C453        H464   1.082       .  S
C454        C455   1.391       .  A
C455        C456   1.397       .  A
C455        H465   1.082       .  S
C456        C457   1.397       .  A
C457        H466   1.085       .  S
C458        C459   1.395       .  A
C458        H467   1.085       .  S
C459        C460   1.398       .  A
C460        H468   1.083       .  S
C469        C470   1.385       .  A
C469        C474   1.397       .  A
C469        H485   1.084   1_455  S
C470        C471   1.396       .  A
C470        H486   1.083   1_455  S
C471        C481   1.369       .  A
C471        C472   1.405       .  A
C472        C478   1.411       .  A
C472        C473   1.385       .  A
C473        C475   1.409       .  A
C473        C474   1.409       .  A
C474        C482   1.371       .  A
C475        C484   1.391       .  A
C475        C476   1.402       .  A
C476        C477   1.397       .  A
C476        H487   1.081       .  S
C477        C478   1.401       .  A
C477        H488   1.082       .  S
C478        C479   1.392       .  A
C479       C1464   1.398       .  A
C479        H489   1.082       .  S
C480       C1463   1.397       .  A
C480       C1465   1.397       .  A
C481       C1464   1.395       .  A
C481        H490   1.085       .  S
C482        C483   1.394       .  A
C482        H491   1.085       .  S
C483        C484   1.398       .  A
C484        H492   1.081       .  S
N493        C497   1.356       .  A
N493        C494   1.370       .  A
N493        C975   1.405       .  S
C494        C495   1.380       .  A
C494        C644   1.518       .  S
C495        C496   1.389       .  A
C495        H498   1.081       .  S
C496        C497   1.395       .  A
C496        H499   1.083       .  S
C497        C784   1.531       .  S
N500        C504   1.361       .  A
N500        C501   1.372       .  A
N500        C972   1.408   1_545  S
C501        C502   1.380       .  A
C501        C724   1.524       .  S
C502        C503   1.390       .  A
C502        H505   1.081       .  S
C503        C504   1.395       .  A
C503        H506   1.082       .  S
C504        C530   1.537       .  S
Zr507       O508   2.436       .  S
Zr507       O509   2.529       .  S
Zr507       O510   2.388       .  S
Zr507       O513   2.388       .  S
Zr507       O515   2.374       .  S
Zr507       O516   2.373       .  S
Zr507       O517   2.443       .  S
Zr507       O518   2.431       .  S
O508        H564   0.990       .  S
O508        H572   0.988       .  S
O509        C529   1.301       .  A
O510        C531   1.273       .  A
O511      Zr1505   2.580   1_545  S
O511        C530   1.313       .  A
O512       Zr520   2.579       .  S
O512        C531   1.315       .  A
O513        C530   1.276       .  A
O514       Zr522   2.547       .  S
O514        C529   1.302       .  A
O515       Zr520   2.414       .  S
O515       Zr522   2.358       .  S
O516      Zr1505   2.430   1_545  S
O516       Zr522   2.374       .  S
O516        H551   0.966       .  S
O517       Zr520   2.417       .  S
O517       Zr537   2.446       .  S
O517        H554   0.966       .  S
O518      Zr1505   2.414   1_545  S
O518       Zr537   2.437       .  S
Zr519       O544   2.440   1_545  S
Zr519      O1522   2.529   1_545  S
Zr519      O1530   2.366   1_545  S
Zr519       O534   2.356       .  S
Zr519       O525   2.429       .  S
Zr519       O526   2.439       .  S
Zr519       O527   2.374       .  S
Zr519      O1512   2.363   1_545  S
Zr520       O539   2.432       .  S
Zr520       O532   2.435       .  S
Zr520       O533   2.584       .  S
Zr520       O526   2.405       .  S
Zr520       O527   2.419       .  S
Zr521       O523   2.436       .  S
Zr521       O545   2.434       .  S
Zr521      O1495   2.588       .  S
Zr521       O547   2.600       .  S
Zr521      O1500   2.429       .  S
Zr521      O1502   2.416       .  S
Zr521      O1509   2.407       .  S
Zr521       O528   2.410       .  S
Zr522       O548   2.435       .  S
Zr522       O549   2.439       .  S
Zr522       O524   2.442       .  S
Zr522       O525   2.458       .  S
Zr522       O526   2.432       .  S
O523        H560   0.990       .  S
O524        H555   0.990       .  S
O524        H569   0.990       .  S
O525      Zr1505   2.407   1_545  S
O526        H552   0.967       .  S
O527       Zr537   2.379       .  S
O528      Zr1503   2.364       .  S
O528      Zr1521   2.354       .  S
O528        H553   0.963       .  S
C529        C588   1.589       .  S
C531        C748   1.521       .  S
O532        H568   0.990       .  S
O533        C535   1.314       .  A
O534        C535   1.269       .  A
C535        C584   1.524       .  S
O536       Zr537   2.432       .  S
O536        H565   0.990       .  S
Zr537       O540   2.435       .  S
Zr537      O1525   2.433   1_545  S
Zr537      O1526   2.550   1_545  S
Zr537      O1512   2.353   1_545  S
O538      Zr1503   2.533       .  S
O538        C543   1.304       .  A
O539        H556   0.989       .  S
O539        H571   0.990       .  S
O540        H557   0.990       .  S
O541      Zr1521   2.430       .  S
O541        H561   0.988       .  S
O541        H570   0.989       .  S
O542      Zr1521   2.546       .  S
O542        C543   1.302       .  A
C543        C671   1.582       .  S
O544        H563   0.990       .  S
O544        H567   0.990   1_565  S
O545        H559   0.990       .  S
O545       H1550   0.990       .  S
O546      Zr1503   2.364       .  S
O546        C550   1.270       .  A
O547        C550   1.319       .  A
O548        H558   0.989       .  S
O549        H562   0.990       .  S
C550        C828   1.517       .  S
H566       O1529   0.990       .  S
N573        C577   1.368       .  A
N573        C574   1.351       .  A
N573        C951   1.405       .  S
C574        C575   1.395       .  A
C574        C789   1.526       .  S
C575        C576   1.391       .  A
C575        H578   1.082       .  S
C576        C577   1.379       .  A
C576        H579   1.081       .  S
C577        C625   1.511       .  S
N580        C584   1.354       .  A
N580        C581   1.368       .  A
N580        C948   1.405       .  S
C581       C1566   1.380       .  A
C581        C705   1.506       .  S
C582       C1565   1.380       .  A
C582        C583   1.385       .  A
C582        H585   1.082       .  S
C583       C1568   1.394       .  A
C583        H586   1.083       .  S
C584       C1567   1.394       .  A
N587        C591   1.394       .  A
N587        C588   1.390       .  A
N587        C924   1.410       .  S
C588        C589   1.387       .  A
C589        C590   1.403       .  A
C589        H592   1.081       .  S
C590        C591   1.388       .  A
C590        H593   1.082       .  S
C591        C783   1.592       .  S
N594        C598   1.394       .  A
N594        C595   1.392       .  A
N594       C2895   1.418   1_455  S
C595        C596   1.385       .  A
C595        C637   1.584       .  S
C596        C597   1.400       .  A
C596        H599   1.081       .  S
C597        C598   1.388       .  A
C597        H600   1.082       .  S
C598        C717   1.588       .  S
Zr601       O602   2.445       .  S
Zr601       O603   2.564       .  S
Zr601       O604   2.374       .  S
Zr601       O607   2.378       .  S
Zr601       O609   2.368       .  S
Zr601       O610   2.374       .  S
Zr601       O611   2.443       .  S
Zr601       O612   2.445       .  S
O602        H658   0.990       .  S
O602        H666   0.991       .  S
O603        C623   1.309       .  A
O604        C625   1.263       .  A
O605       Zr615   2.583       .  S
O605        C624   1.314       .  A
O606       Zr614   2.570       .  S
O606        C625   1.307       .  A
O607        C624   1.271       .  A
O608       Zr616   2.552       .  S
O608       C2591   1.304   1_455  A
O609       Zr614   2.411       .  S
O609      Zr2584   2.359       .  S
O610       Zr615   2.430       .  S
O610      Zr2584   2.379       .  S
O610        H645   0.963       .  S
O611       Zr614   2.408       .  S
O611       Zr631   2.436       .  S
O611        H648   0.964       .  S
O612       Zr615   2.410       .  S
O612       Zr631   2.443       .  S
Zr613       O638   2.447       .  S
Zr613       O632   2.543       .  S
Zr613       O640   2.390       .  S
Zr613       O628   2.405       .  S
Zr613       O620   2.433       .  S
Zr613       O621   2.376       .  S
Zr613       O622   2.385   1_455  S
Zr613       O619   2.335       .  S
Zr614       O633   2.434       .  S
Zr614      O2594   2.430       .  S
Zr614      O2595   2.554       .  S
Zr614      O2588   2.401       .  S
Zr614      O2589   2.427       .  S
Zr615       O617   2.436       .  S
Zr615      O2607   2.431       .  S
Zr615      O2609   2.592       .  S
Zr615      O2587   2.409       .  S
Zr615      O2590   2.412       .  S
Zr616       O642   2.437       .  S
Zr616       O643   2.438       .  S
Zr616       O618   2.439       .  S
Zr616      O2577   2.343       .  S
Zr616      O2578   2.372   1_455  S
Zr616       O620   2.425       .  S
Zr616       O619   2.351       .  S
O617        H654   0.990       .  S
O618        H649   0.986       .  S
O618        H663   0.990       .  S
O619      Zr2583   2.315   1_455  S
O620      Zr2582   2.410       .  S
O620        H646   0.968       .  S
O621      Zr2582   2.424       .  S
O621      Zr2599   2.378   1_455  S
O622      Zr2583   2.429       .  S
O622      Zr2599   2.366       .  S
O622        H647   0.966       .  S
C623        C675   1.598       .  S
C623       O2576   1.299       .  A
C624        C831   1.533       .  S
O626      Zr2582   2.429       .  S
O626        H662   0.990       .  S
O627      Zr2582   2.551       .  S
O627        C629   1.310       .  A
O628        C629   1.274       .  A
C629        C751   1.530       .  S
O630       Zr631   2.440       .  S
O630        H659   0.991       .  S
Zr631       O634   2.436       .  S
Zr631       O635   2.431       .  S
Zr631       O636   2.562       .  S
Zr631      O2589   2.386       .  S
Zr631      O2590   2.350       .  S
O632        C637   1.305       .  A
O633        H650   0.990       .  S
O633        H665   0.990       .  S
O634        H651   0.990       .  S
O635        H655   0.990       .  S
O635        H664   0.990       .  S
O636       C2605   1.306       .  A
C637       O2604   1.302   1_455  A
O638        H657   0.991       .  S
O638        H661   0.991       .  S
O639      Zr2583   2.430       .  S
O639        H653   0.989       .  S
O639        H660   0.990       .  S
O640        C644   1.266       .  A
O641      Zr2583   2.567   1_455  S
O641        C644   1.306       .  A
O642        H652   0.990       .  S
O643        H656   0.990       .  S
N667        C671   1.391       .  A
N667        C668   1.388       .  A
N667        C900   1.415       .  S
C668        C669   1.387       .  A
C668        C797   1.578       .  S
C669        C670   1.399       .  A
C669        H672   1.082       .  S
C670        C671   1.387       .  A
C670        H673   1.082       .  S
N674        C678   1.398       .  A
N674        C675   1.399       .  A
N674       C2871   1.419       .  S
C675        C676   1.388       .  A
C676        C677   1.403       .  A
C676        H679   1.082       .  S
C677        C678   1.388       .  A
C677        H680   1.082       .  S
C678        C703   1.598       .  S
Zr681       O682   2.441       .  S
Zr681      O1667   2.543   1_545  S
Zr681       O684   2.352       .  S
Zr681      O1671   2.352   1_545  S
Zr681       O689   2.364       .  S
Zr681      O1674   2.370   1_545  S
Zr681       O691   2.428       .  S
O682        H738   0.990       .  S
O682        H746   0.991       .  S
O683      Zr1665   2.559       .  S
O683        C703   1.309       .  A
O684        C705   1.267       .  A
O685       Zr695   2.580       .  S
O685        C704   1.314       .  A
O686       Zr694   2.578       .  S
O686        C705   1.314       .  A
O687      Zr1665   2.364       .  S
O688      Zr1680   2.549       .  S
O688       C2671   1.301   1_455  A
O689       Zr694   2.403       .  S
O689      Zr2664   2.358   1_545  S
O690      Zr1665   2.370       .  S
O690      Zr3648   2.374       .  S
O690        H725   0.966       .  S
O691       Zr694   2.404       .  S
O691        H728   0.966       .  S
O692      Zr1679   2.410       .  S
O692       Zr711   2.443       .  S
Zr693       O718   2.446       .  S
Zr693       O712   2.550       .  S
Zr693       O720   2.393       .  S
Zr693       O708   2.404       .  S
Zr693       O699   2.440       .  S
Zr693       O701   2.377       .  S
Zr693       O702   2.383   1_455  S
Zr694       O713   2.431       .  S
Zr694      O2674   2.428       .  S
Zr694      O2675   2.559       .  S
Zr694      O2668   2.408       .  S
Zr694      O2177   2.416   1_556  S
Zr695       O697   2.434       .  S
Zr695      O2687   2.434       .  S
Zr695      O3673   2.586       .  S
Zr695      O1676   2.406       .  S
Zr695      O3654   2.418       .  S
Zr695      O3651   2.312       .  S
Zr696      O1706   2.436       .  S
Zr696       O723   2.436       .  S
Zr696       O698   2.442       .  S
Zr696      O1672   2.531       .  S
Zr696      O2657   2.357   1_565  S
Zr696      O3642   2.379   1_455  S
Zr696       O700   2.430   1_565  S
O697        H734   0.990       .  S
O698        H729   0.990       .  S
O698        H743   0.989       .  S
O699      Zr3647   2.424   1_455  S
O700      Zr2662   2.393       .  S
O700        H726   0.966       .  S
O701      Zr2170   2.423       .  S
O701      Zr2679   2.373   1_455  S
O702      Zr3647   2.426       .  S
O702      Zr2679   2.355       .  S
O702        H727   0.964       .  S
C703       O2656   1.301       .  A
O706      Zr2662   2.429       .  S
O706        H742   0.990       .  S
O707      Zr2662   2.550       .  S
O707        C709   1.310       .  A
O710       Zr711   2.439       .  S
O710        H739   0.990       .  S
Zr711       O714   2.435       .  S
Zr711       O715   2.434       .  S
Zr711       O716   2.539       .  S
Zr711      O2669   2.373       .  S
Zr711      O2670   2.359       .  S
O712        C717   1.307       .  A
O713        H730   0.990       .  S
O713        H745   0.989       .  S
O714        H731   0.990       .  S
O715        H735   0.990       .  S
O715        H744   0.990       .  S
O716       C2685   1.302       .  A
C717       O2684   1.304   1_455  A
O718        H737   0.991       .  S
O719      Zr2663   2.433       .  S
O719        H733   0.990       .  S
O719        H740   0.990   1_655  S
O720        C724   1.267       .  A
O721      Zr3647   2.583   1_455  S
O721        C724   1.310       .  A
O722      Zr1680   2.440       .  S
O722        H732   0.990   1_455  S
O723        H736   0.990   1_556  S
N747        C751   1.353       .  A
N747        C748   1.372       .  A
N747        C876   1.405       .  S
C748        C749   1.387       .  A
C749        C750   1.396       .  A
C749        H752   1.082       .  S
C750        C751   1.387       .  A
C750        H753   1.082       .  S
N754        C879   1.410       .  S
C755        C756   1.388       .  A
C756        C757   1.391       .  A
C756        H759   1.082       .  S
C757        C758   1.385       .  A
C757        H760   1.082       .  S
Zr761       O762   2.438       .  S
Zr761       O763   2.539       .  S
Zr761       O764   2.373       .  S
Zr761       O767   2.363       .  S
Zr761       O769   2.368       .  S
Zr761       O770   2.369       .  S
Zr761       O772   2.431       .  S
O762        H818   0.990       .  S
O762        H826   0.989       .  S
O763        C783   1.304       .  A
O765       Zr775   2.588       .  S
O765        C784   1.316       .  A
O766       Zr774   2.569       .  S
O766        C785   1.313       .  A
O767        C784   1.271       .  A
O768       Zr776   2.547       .  S
O768        C783   1.302       .  A
O769       Zr776   2.363       .  S
O770       Zr775   2.420       .  S
O770       Zr776   2.372       .  S
O770        H805   0.965       .  S
O771       Zr774   2.410       .  S
O771       Zr791   2.441       .  S
O771        H808   0.967       .  S
O772       Zr775   2.409       .  S
Zr773       O798   2.446       .  S
Zr773       O792   2.532       .  S
Zr773       O800   2.385   1_556  S
Zr773       O788   2.369       .  S
Zr773       O780   2.437   1_556  S
Zr773       O781   2.374       .  S
Zr773       O782   2.374       .  S
Zr774       O793   2.436       .  S
Zr774       O786   2.434       .  S
Zr774       O787   2.569       .  S
Zr774       O780   2.418   1_556  S
Zr774       O781   2.414       .  S
Zr775       O777   2.437       .  S
Zr775       O799   2.435       .  S
Zr775       O801   2.579       .  S
Zr775       O779   2.405       .  S
Zr776       O802   2.440       .  S
Zr776       O803   2.442       .  S
Zr776       O778   2.439       .  S
Zr776       O779   2.444       .  S
O777        H814   0.989       .  S
O778        H809   0.988       .  S
O778        H823   0.989       .  S
O780        H806   0.966       .  S
O781       Zr791   2.373       .  S
O782       Zr791   2.365       .  S
O782        H807   0.965       .  S
O786        H822   0.990       .  S
O787        C789   1.312       .  A
O788        C789   1.268       .  A
O790       Zr791   2.441       .  S
O790        H819   0.991       .  S
Zr791       O794   2.439       .  S
Zr791       O795   2.420       .  S
Zr791       O796   2.543       .  S
O792        C797   1.303       .  A
O793        H810   0.989       .  S
O793        H825   0.990       .  S
O794        H811   0.990       .  S
O795        H815   0.988       .  S
O795        H824   0.989       .  S
O796        C797   1.302       .  A
O798        H821   0.991       .  S
O799        H813   0.990       .  S
O799        H820   0.990       .  S
O801        C804   1.312       .  A
O802        H812   0.990       .  S
O803        H816   0.989       .  S
N827        C831   1.356       .  A
N827        C828   1.370       .  A
N827        C852   1.401       .  S
C828        C829   1.382       .  A
C829        C830   1.388       .  A
C829        H832   1.082       .  S
C830        C831   1.394       .  A
C830        H833   1.082       .  S
N834        C855   1.404       .  S
C835        C836   1.379   1_554  A
C836        C837   1.389       .  A
C836        H839   1.080       .  S
C837        C838   1.394       .  A
C837        H840   1.082       .  S
C841        C842   1.383       .  A
C841        C846   1.396       .  A
C841        H857   1.083       .  S
C842        C843   1.397       .  A
C842        H858   1.084       .  S
C843        C853   1.367       .  A
C843        C844   1.408       .  A
C844        C850   1.411       .  A
C844        C845   1.383       .  A
C845        C847   1.410       .  A
C845        C846   1.407       .  A
C846        C854   1.369       .  A
C847        C856   1.388       .  A
C847        C848   1.400       .  A
C848        C849   1.395       .  A
C848        H859   1.081       .  S
C849        C850   1.402       .  A
C849        H860   1.081       .  S
C850        C851   1.389       .  A
C851        C852   1.397       .  A
C851        H861   1.083       .  S
C852        C853   1.391       .  A
C853        H862   1.085       .  S
C854        C855   1.393       .  A
C854        H863   1.085       .  S
C855        C856   1.397       .  A
C856        H864   1.081       .  S
C865        C866   1.388       .  A
C865        C870   1.397       .  A
C865        H881   1.082       .  S
C866        C867   1.400       .  A
C866        H882   1.083       .  S
C867        C877   1.377       .  A
C867        C868   1.407       .  A
C868        C874   1.414       .  A
C868        C869   1.387       .  A
C869        C871   1.406       .  A
C869        C870   1.413       .  A
C870        C878   1.382       .  A
C871        C880   1.376       .  A
C871        C872   1.400       .  A
C872        C873   1.386       .  A
C872        H883   1.081       .  S
C873        C874   1.395       .  A
C873        H884   1.081       .  S
C874        C875   1.381       .  A
C875        C876   1.386       .  A
C875        H885   1.077       .  S
C876        C877   1.398       .  A
C877        H886   1.085       .  S
C878        C879   1.389       .  A
C878        H887   1.075       .  S
C879        C880   1.398       .  A
C880        H888   1.085       .  S
C889        C890   1.390       .  A
C889        C894   1.398       .  A
C889        H905   1.084       .  S
C890        C891   1.399       .  A
C890        H906   1.083       .  S
C891        C901   1.385       .  A
C891        C892   1.410       .  A
C892        C898   1.410       .  A
C892        C893   1.394       .  A
C893        C895   1.410       .  A
C893        C894   1.409       .  A
C894        C902   1.383       .  A
C895        C904   1.392       .  A
C895        C896   1.401       .  A
C896        C897   1.397       .  A
C896        H907   1.084       .  S
C897        C898   1.404       .  A
C897        H908   1.083       .  S
C898        C899   1.393       .  A
C899        C900   1.402       .  A
C899        H909   1.084       .  S
C900        C901   1.395       .  A
C901        H910   1.084       .  S
C902        C903   1.394       .  A
C902        H911   1.084       .  S
C903       N2642   1.413   1_455  S
C903        C904   1.399       .  A
C904        H912   1.084       .  S
C913        C914   1.391       .  A
C913        C918   1.400       .  A
C913        H929   1.084       .  S
C914        C915   1.399       .  A
C914        H930   1.084       .  S
C915        C925   1.383       .  A
C915        C916   1.409       .  A
C916        C922   1.410       .  A
C916        C917   1.392       .  A
C917        C919   1.410       .  A
C917        C918   1.411       .  A
C918        C926   1.386       .  A
C919        C928   1.387       .  A
C919        C920   1.402       .  A
C920        C921   1.393       .  A
C920        H931   1.084       .  S
C921        C922   1.401       .  A
C921        H932   1.083       .  S
C922        C923   1.389       .  A
C923        C924   1.398       .  A
C923        H933   1.084       .  S
C924        C925   1.393       .  A
C925        H934   1.084       .  S
C926        C927   1.396       .  A
C926        H935   1.083       .  S
C927       N2562   1.413       .  S
C927        C928   1.398       .  A
C928        H936   1.084       .  S
C937        C938   1.382       .  A
C937        C942   1.396       .  A
C937        H953   1.084       .  S
C938        C939   1.396       .  A
C938        H954   1.084       .  S
C939        C949   1.365       .  A
C939        C940   1.406       .  A
C940        C946   1.411       .  A
C940        C941   1.383       .  A
C941        C943   1.409       .  A
C941        C942   1.409       .  A
C942        C950   1.367       .  A
C943        C952   1.389       .  A
C943        C944   1.402       .  A
C944        C945   1.396       .  A
C944        H955   1.081       .  S
C945        C946   1.402       .  A
C945        H956   1.081       .  S
C946        C947   1.393       .  A
C947        C948   1.400       .  A
C947        H957   1.083       .  S
C948        C949   1.392       .  A
C949        H958   1.085       .  S
C950        C951   1.392       .  A
C950        H959   1.085       .  S
C951        C952   1.398       .  A
C952        H960   1.082       .  S
C961        C962   1.384       .  A
C961        C966   1.397       .  A
C961        H977   1.084   1_455  S
C962        C963   1.397       .  A
C962        H978   1.083   1_455  S
C963        C973   1.369       .  A
C963        C964   1.407       .  A
C964        C970   1.412       .  A
C964        C965   1.385       .  A
C965        C967   1.409       .  A
C965        C966   1.409       .  A
C966        C974   1.371       .  A
C967        C976   1.388       .  A
C967        C968   1.401       .  A
C968        C969   1.396       .  A
C968        H979   1.082       .  S
C969        C970   1.401       .  A
C969        H980   1.082       .  S
C970        C971   1.391       .  A
C971       C1956   1.397       .  A
C971        H981   1.083       .  S
C972       C1955   1.396       .  A
C972       C1957   1.396       .  A
C973       C1956   1.394       .  A
C973        H982   1.085       .  S
C974        C975   1.394       .  A
C974        H983   1.085       .  S
C975        C976   1.397       .  A
C976        H984   1.082       .  S
N985        C989   1.357       .  A
N985        C986   1.372       .  A
N985       C1467   1.408       .  S
C986        C987   1.379       .  A
C986       C1136   1.523       .  S
C987        C988   1.389       .  A
C987        H990   1.079       .  S
C988        C989   1.393       .  A
C988        H991   1.082       .  S
C989       C1276   1.528       .  S
N992        C996   1.362       .  A
N992        C993   1.372       .  A
N992       C1464   1.408       .  S
C993        C994   1.380       .  A
C993       C1216   1.516       .  S
C994        C995   1.388       .  A
C994        H997   1.082       .  S
C995        C996   1.395       .  A
C995        H998   1.082       .  S
C996       C1022   1.540       .  S
Zr999      O1000   2.438       .  S
Zr999      O1001   2.542       .  S
Zr999      O1002   2.381       .  S
Zr999      O1005   2.382       .  S
Zr999      O1007   2.377       .  S
Zr999      O1008   2.369       .  S
Zr999      O1009   2.441       .  S
Zr999      O1010   2.429       .  S
O1000      H1056   0.990       .  S
O1000      H1064   0.988       .  S
O1001      C1021   1.304       .  A
O1002      C1023   1.273       .  A
O1003      C1022   1.316       .  A
O1004     Zr1012   2.587       .  S
O1004      C1023   1.317       .  A
O1005      C1022   1.275       .  A
O1006     Zr1014   2.537       .  S
O1006      C1021   1.299       .  A
O1007     Zr1012   2.418       .  S
O1007     Zr1014   2.363       .  S
O1008     Zr1014   2.378       .  S
O1008      H1043   0.967       .  S
O1009     Zr1012   2.415       .  S
O1009     Zr1029   2.443       .  S
O1009      H1046   0.967       .  S
O1010     Zr1029   2.438       .  S
Zr1011     O1036   2.441       .  S
Zr1011     O1026   2.356       .  S
Zr1011     O1017   2.426       .  S
Zr1011     O1018   2.433       .  S
Zr1011     O1019   2.375       .  S
Zr1012     O1031   2.435       .  S
Zr1012     O1024   2.434       .  S
Zr1012     O1025   2.610       .  S
Zr1012     O1018   2.402       .  S
Zr1012     O1019   2.412       .  S
Zr1013     O1015   2.435       .  S
Zr1013     O1037   2.436       .  S
Zr1013     O1039   2.617       .  S
Zr1013     O1020   2.419       .  S
Zr1014     O1040   2.436       .  S
Zr1014     O1041   2.437       .  S
Zr1014     O1016   2.441       .  S
Zr1014     O1017   2.455       .  S
Zr1014     O1018   2.433       .  S
O1015      H1052   0.990       .  S
O1016      H1047   0.990       .  S
O1016      H1061   0.989       .  S
O1018      H1044   0.965       .  S
O1019     Zr1029   2.368       .  S
O1020      H1045   0.966       .  S
C1021      C1080   1.588       .  S
C1023      C1240   1.522       .  S
O1024      H1060   0.990       .  S
O1025      C1027   1.321       .  A
O1026      C1027   1.269       .  A
C1027      C1076   1.538       .  S
O1028     Zr1029   2.435       .  S
O1028      H1057   0.990       .  S
Zr1029     O1032   2.435       .  S
O1030      C1035   1.305       .  A
O1031      H1048   0.990       .  S
O1031      H1063   0.990       .  S
O1032      H1049   0.990       .  S
O1033      H1053   0.990       .  S
O1033      H1062   0.990       .  S
O1034      C1035   1.303       .  A
C1035      C1163   1.586       .  S
O1036      H1055   0.990       .  S
O1036      H1059   0.990       .  S
O1037      H1051   0.990       .  S
O1038      C1042   1.267       .  A
O1039      C1042   1.321       .  A
O1040      H1050   0.989       .  S
O1041      H1054   0.990       .  S
C1042      C1320   1.530       .  S
N1065      C1069   1.369       .  A
N1065      C1066   1.360       .  A
N1065      C1443   1.412       .  S
C1066      C1067   1.395       .  A
C1066      C1281   1.532       .  S
C1067      C1068   1.387       .  A
C1067      H1070   1.082       .  S
C1068      C1069   1.379       .  A
C1068      H1071   1.082       .  S
C1069      C1117   1.508       .  S
N1072      C1076   1.354       .  A
N1072      C1073   1.369       .  A
N1072      C1440   1.400       .  S
C1073      C1197   1.518       .  S
C1074      C1075   1.387       .  A
C1074      H1077   1.082   1_545  S
C1075      H1078   1.082   1_545  S
N1079      C1083   1.392       .  A
N1079      C1080   1.393       .  A
N1079      C1416   1.411       .  S
C1080      C1081   1.386       .  A
C1081      C1082   1.402       .  A
C1081      H1084   1.081       .  S
C1082      C1083   1.388       .  A
C1082      H1085   1.082       .  S
C1083      C1275   1.590       .  S
N1086      C1090   1.391       .  A
N1086      C1087   1.390       .  A
N1086      C3387   1.414   1_455  S
C1087      C1088   1.388       .  A
C1087      C1129   1.586       .  S
C1088      C1089   1.402       .  A
C1088      H1091   1.082       .  S
C1089      C1090   1.386       .  A
C1089      H1092   1.081       .  S
C1090      C1209   1.585       .  S
Zr1093     O1094   2.439       .  S
Zr1093     O1095   2.539       .  S
Zr1093     O1096   2.362       .  S
Zr1093     O1099   2.395       .  S
Zr1093     O1101   2.368       .  S
Zr1093     O1102   2.371       .  S
Zr1093     O1103   2.439       .  S
Zr1093     O1104   2.430       .  S
O1094      H1150   0.990       .  S
O1094      H1158   0.990       .  S
O1095      C1115   1.304       .  A
O1096      C1117   1.268       .  A
O1097     Zr1107   2.590       .  S
O1097      C1116   1.316       .  A
O1098     Zr1106   2.577       .  S
O1098      C1117   1.313       .  A
O1099      C1116   1.277       .  A
O1100     Zr1108   2.540       .  S
O1100      C3083   1.301   1_455  A
O1101     Zr1106   2.390       .  S
O1101     Zr3076   2.352       .  S
O1102     Zr1107   2.413       .  S
O1102     Zr3076   2.375       .  S
O1102      H1137   0.966       .  S
O1103     Zr1106   2.402       .  S
O1103     Zr1123   2.443       .  S
O1103      H1140   0.965       .  S
O1104     Zr1107   2.407       .  S
O1104     Zr1123   2.447       .  S
Zr1105     O1130   2.442       .  S
Zr1105     O1124   2.535       .  S
Zr1105     O1132   2.398       .  S
Zr1105     O1120   2.403       .  S
Zr1105     O1111   2.442       .  S
Zr1105     O1112   2.440       .  S
Zr1105     O1113   2.377       .  S
Zr1105     O1114   2.389   1_455  S
Zr1106     O1125   2.430       .  S
Zr1106     O3086   2.429       .  S
Zr1106     O3087   2.541       .  S
Zr1106     O3080   2.407       .  S
Zr1106     O3081   2.425       .  S
Zr1107     O1109   2.434       .  S
Zr1107     O3099   2.431       .  S
Zr1107     O3101   2.565       .  S
Zr1107     O3079   2.421       .  S
Zr1107     O3082   2.436       .  S
Zr1108     O1134   2.436       .  S
Zr1108     O1135   2.436       .  S
Zr1108     O1110   2.437       .  S
Zr1108     O3069   2.357       .  S
Zr1108     O3070   2.374   1_455  S
Zr1108     O1111   2.442       .  S
Zr1108     O1112   2.435       .  S
O1109      H1146   0.990       .  S
O1110      H1141   0.990       .  S
O1110      H1155   0.989       .  S
O1111     Zr3075   2.418   1_455  S
O1112     Zr3074   2.398       .  S
O1112      H1138   0.966       .  S
O1113     Zr3074   2.424       .  S
O1113     Zr3091   2.379   1_455  S
O1114     Zr3075   2.436       .  S
O1114     Zr3091   2.355       .  S
O1114      H1139   0.965       .  S
C1115      C1167   1.582       .  S
C1115      O3068   1.298       .  A
C1116      C1323   1.543       .  S
O1118     Zr3074   2.430       .  S
O1118      H1154   0.990       .  S
O1119     Zr3074   2.544       .  S
O1119      C1121   1.308       .  A
O1120      C1121   1.276       .  A
C1121      C1243   1.530       .  S
O1122     Zr1123   2.439       .  S
O1122      H1151   0.990       .  S
Zr1123     O1126   2.436       .  S
Zr1123     O1127   2.433       .  S
Zr1123     O1128   2.544       .  S
Zr1123     O3081   2.376       .  S
Zr1123     O3082   2.357       .  S
O1124      C1129   1.302       .  A
O1125      H1142   0.990       .  S
O1125      H1157   0.989       .  S
O1126      H1143   0.989       .  S
O1127      H1147   0.990       .  S
O1127      H1156   0.991       .  S
O1128      C3097   1.302       .  A
C1129      O3096   1.304   1_455  A
O1130      H1149   0.990       .  S
O1130      H1153   0.990       .  S
O1131     Zr3075   2.430       .  S
O1131      H1145   0.990       .  S
O1131      H1152   0.989       .  S
O1132      C1136   1.265       .  A
O1133     Zr3075   2.564   1_455  S
O1133      C1136   1.303       .  A
O1134      H1144   0.990       .  S
O1135      H1148   0.991       .  S
N1159      C1163   1.393       .  A
N1159      C1160   1.392       .  A
N1159      C1392   1.417       .  S
C1160      C1161   1.387       .  A
C1160      C1289   1.584       .  S
C1161      C1162   1.400       .  A
C1161      H1164   1.081       .  S
C1162      C1163   1.388       .  A
C1162      H1165   1.082       .  S
N1166      C1170   1.393       .  A
N1166      C1167   1.391       .  A
N1166      C3363   1.417       .  S
C1167      C1168   1.387       .  A
C1168      C1169   1.401       .  A
C1168      H1171   1.082       .  S
C1169      C1170   1.388       .  A
C1169      H1172   1.082       .  S
C1170      C1195   1.586       .  S
Zr1173     O1174   2.442       .  S
Zr1173     O1176   2.380       .  S
Zr1173     O1181   2.366       .  S
Zr1173     O1183   2.437       .  S
Zr1173     O1676   2.439       .  S
O1174      H1230   0.991       .  S
O1174      H1238   0.990       .  S
O1175      C1195   1.303       .  A
O1176      C1197   1.265       .  A
O1177     Zr1187   2.595   1_565  S
O1177      C1196   1.318       .  A
O1178     Zr1186   2.580       .  S
O1178      C1197   1.311       .  A
O1179      C1688   1.273       .  A
O1180      C3163   1.303   1_455  A
O1181     Zr1186   2.408       .  S
O1181     Zr3156   2.352       .  S
O1182     Zr1679   2.416   1_565  S
O1182     Zr2172   2.369       .  S
O1182      H1217   0.965       .  S
O1183     Zr1186   2.407       .  S
O1183     Zr1695   2.437       .  S
O1183      H1220   0.968       .  S
O1184     Zr1665   2.435   1_554  S
O1184     Zr1203   2.447       .  S
Zr1185     O1210   2.446       .  S
Zr1185     O1204   2.543       .  S
Zr1185     O1212   2.368       .  S
Zr1185     O1200   2.397       .  S
Zr1185     O1191   2.435       .  S
Zr1185     O1684   2.432   1_554  S
Zr1185     O1193   2.376       .  S
Zr1185     O1194   2.381   1_455  S
Zr1186     O1205   2.432       .  S
Zr1186     O3166   2.423       .  S
Zr1186     O3167   2.551       .  S
Zr1186     O3160   2.417       .  S
Zr1186     O3653   2.421       .  S
Zr1187     O1189   2.435       .  S
Zr1187     O3179   2.436   1_545  S
Zr1187     O2197   2.571       .  S
Zr1187     O1674   2.422   1_544  S
Zr1187     O2175   2.420       .  S
Zr1187     O2178   2.435       .  S
Zr1188     O1215   2.436       .  S
Zr1188     O1190   2.442       .  S
Zr1188     O3149   2.360       .  S
Zr1188     O2166   2.378   1_455  S
Zr1188     O1683   2.451       .  S
Zr1188     O1192   2.428       .  S
O1189      H1226   0.991   1_545  S
O1190      H1221   0.990       .  S
O1190      H1235   0.989       .  S
O1191     Zr2171   2.409   1_455  S
O1191     Zr1680   2.453   1_554  S
O1192     Zr1677   2.430       .  S
O1192     Zr3154   2.398       .  S
O1192      H1218   0.966       .  S
O1193     Zr3646   2.420   1_554  S
O1193     Zr3171   2.379   1_455  S
O1194     Zr2171   2.413       .  S
O1194     Zr3171   2.353       .  S
O1194      H1219   0.966       .  S
C1195      O3148   1.301       .  A
C1196      C1822   1.528       .  S
C1196      O1671   1.268   1_554  A
O1198     Zr3154   2.432       .  S
O1198      H1234   0.990       .  S
O1199     Zr3154   2.565       .  S
O1199      C1201   1.313       .  A
O1200      C1693   1.276   1_554  A
C1201      C1739   1.525       .  S
C1201      O1692   1.273       .  A
O1202     Zr1203   2.439   1_556  S
O1202      H1231   0.989       .  S
Zr1203     O1206   2.436   1_554  S
Zr1203     O1207   2.433       .  S
Zr1203     O1208   2.539       .  S
Zr1203     O1675   2.439   1_554  S
Zr1203     O3161   2.372       .  S
Zr1203     O3162   2.362       .  S
O1204      C1209   1.306       .  A
O1205      H1222   0.990       .  S
O1205      H1237   0.989       .  S
O1206      H1223   0.990   1_556  S
O1207      H1227   0.990       .  S
O1207      H1236   0.991       .  S
O1208      C3177   1.300       .  A
C1209      O3176   1.303   1_455  A
O1210      H1229   0.989       .  S
O1210      H1725   0.990       .  S
O1211     Zr3155   2.429   1_565  S
O1211      H1225   0.990       .  S
O1211      H1232   0.990       .  S
O1212      C1216   1.269       .  A
O1213     Zr2171   2.595       .  S
O1213      C1216   1.318   1_655  A
O1214      H1224   0.990       .  S
O1215      H1228   0.990       .  S
H1233      O1702   0.990       .  S
N1239      C1243   1.359       .  A
N1239      C1240   1.378       .  A
N1239      C1368   1.417       .  S
C1240      C1241   1.386       .  A
C1241      C1242   1.391       .  A
C1241      H1244   1.082       .  S
C1242      C1243   1.387       .  A
C1242      H1245   1.082       .  S
N1246      C1742   1.370       .  A
N1246      C1739   1.351       .  A
N1246      C1371   1.406       .  S
C1247      N1738   1.355       .  A
C1247      C1248   1.388   1_556  A
C1247      C1693   1.532       .  S
C1248      C1249   1.396       .  A
C1248      H1251   1.082       .  S
C1249      C1250   1.387   1_554  A
C1249      H1252   1.082       .  S
C1250      N1738   1.372       .  A
C1250      C1769   1.517       .  S
Zr1253     O1254   2.435       .  S
Zr1253     O1255   2.524       .  S
Zr1253     O1256   2.378   1_554  S
Zr1253     O1259   2.392       .  S
Zr1253     O1261   2.380       .  S
Zr1253     O1262   2.368       .  S
Zr1253     O1755   2.438   1_554  S
Zr1253     O1264   2.429   1_554  S
O1254      H1310   0.990       .  S
O1254      H1318   0.988   1_554  S
O1255      C1275   1.301       .  A
O1256      C1769   1.272       .  A
O1257     Zr1267   2.564       .  S
O1257      C1276   1.311       .  A
O1258     Zr1266   2.563       .  S
O1258      C1277   1.311       .  A
O1259      C1276   1.276       .  A
O1260     Zr1268   2.557       .  S
O1260      C1275   1.304       .  A
O1261     Zr1758   2.416   1_554  S
O1261     Zr1268   2.362       .  S
O1262     Zr1267   2.421       .  S
O1262     Zr1268   2.369       .  S
O1262      H1297   0.964       .  S
O1263     Zr1745   2.439       .  S
O1263     Zr1266   2.417       .  S
O1263     Zr1283   2.445       .  S
O1263      H1300   0.965       .  S
O1264     Zr1267   2.407   1_556  S
O1264     Zr1775   2.441       .  S
Zr1265     O1290   2.444       .  S
Zr1265     O1284   2.539       .  S
Zr1265     O1292   2.398       .  S
Zr1265     O1280   2.385       .  S
Zr1265     O1763   2.439       .  S
Zr1265     O1272   2.438       .  S
Zr1265     O1273   2.373       .  S
Zr1265     O1274   2.383       .  S
Zr1266     O1285   2.435       .  S
Zr1266     O1278   2.436       .  S
Zr1266     O1279   2.564       .  S
Zr1266     O1753   2.413       .  S
Zr1266     O1272   2.406       .  S
Zr1266     O1273   2.421       .  S
Zr1267     O1269   2.434       .  S
Zr1267     O1291   2.431       .  S
Zr1267     O1293   2.565       .  S
Zr1267     O1271   2.415       .  S
Zr1267     O1766   2.421   1_554  S
Zr1268     O1294   2.439       .  S
Zr1268     O1295   2.438       .  S
Zr1268     O1270   2.441       .  S
Zr1268     O1271   2.453       .  S
Zr1268     O1764   2.441       .  S
O1269      H1306   0.990       .  S
O1270      H1301   0.990       .  S
O1270      H1315   0.990       .  S
O1271     Zr1757   2.431   1_554  S
O1272     Zr1760   2.433       .  S
O1272      H1298   0.967       .  S
O1273     Zr1283   2.377       .  S
O1274     Zr1759   2.433       .  S
O1274     Zr1283   2.362       .  S
O1274      H1299   0.965       .  S
C1277      C1742   1.509       .  S
C1277      O1748   1.272       .  A
O1278      H1314   0.990       .  S
O1279      C1281   1.310       .  A
O1280      C1281   1.274       .  A
O1282     Zr1283   2.436       .  S
O1282      H1311   0.990       .  S
Zr1283     O1286   2.437       .  S
Zr1283     O1287   2.435       .  S
Zr1283     O1288   2.545       .  S
Zr1283     O1756   2.441       .  S
O1284      C1289   1.304       .  A
O1285      H1302   0.989       .  S
O1285      H1317   0.990       .  S
O1286      H1303   0.990       .  S
O1287      H1307   0.990       .  S
O1287      H1316   0.990       .  S
O1288      C1289   1.302       .  A
O1290      H1801   0.991       .  S
O1290      H1313   0.991       .  S
O1291      H1305   0.990       .  S
O1291      H1312   0.988       .  S
O1292      C1788   1.265       .  A
O1293      C1296   1.306       .  A
O1294      H1304   0.990       .  S
O1295      H1308   0.990       .  S
C1296      C1819   1.513       .  S
C1296      O1784   1.268       .  A
H1309      O1782   0.991       .  S
N1319      C1323   1.363       .  A
N1319      C1320   1.376       .  A
N1319      C1344   1.406       .  S
C1320      C1321   1.381       .  A
C1321      C1322   1.391       .  A
C1321      H1324   1.081       .  S
C1322      C1323   1.394       .  A
C1322      H1325   1.082       .  S
N1326      C1822   1.351       .  A
N1326      C1819   1.367       .  A
N1326      C1347   1.400       .  S
C1327      N1818   1.371       .  A
C1327      C1328   1.380       .  A
C1327      C1788   1.521       .  S
C1328      C1329   1.388       .  A
C1328      H1331   1.078       .  S
C1329      C1330   1.392       .  A
C1329      H1332   1.083       .  S
C1330      N1818   1.355       .  A
C1330      C1688   1.527       .  S
C1333      C1334   1.384       .  A
C1333      C1338   1.396       .  A
C1333      H1349   1.083       .  S
C1334      C1335   1.397       .  A
C1334      H1350   1.084       .  S
C1335      C1345   1.368       .  A
C1335      C1336   1.407       .  A
C1336      C1342   1.410       .  A
C1336      C1337   1.383       .  A
C1337      C1339   1.411       .  A
C1337      C1338   1.408       .  A
C1338      C1346   1.370       .  A
C1339      C1348   1.387       .  A
C1339      C1340   1.401       .  A
C1340      C1341   1.395       .  A
C1340      H1351   1.082       .  S
C1341      C1342   1.401       .  A
C1341      H1352   1.081       .  S
C1342      C1343   1.389       .  A
C1343      C1344   1.399       .  A
C1343      H1353   1.081       .  S
C1344      C1345   1.393       .  A
C1345      H1354   1.085       .  S
C1346      C1347   1.392       .  A
C1346      H1355   1.085       .  S
C1347      C1348   1.395       .  A
C1348      H1356   1.083       .  S
C1357      C1358   1.388       .  A
C1357      C1362   1.396       .  A
C1357      H1373   1.082       .  S
C1358      C1359   1.400       .  A
C1358      H1374   1.081       .  S
C1359      C1369   1.381       .  A
C1359      C1360   1.407       .  A
C1360      C1366   1.412       .  A
C1360      C1361   1.390       .  A
C1361      C1363   1.408       .  A
C1361      C1362   1.413       .  A
C1362      C1370   1.383       .  A
C1363      C1372   1.380       .  A
C1363      C1364   1.400       .  A
C1364      C1365   1.389       .  A
C1364      H1375   1.083       .  S
C1365      C1366   1.398       .  A
C1365      H1376   1.080       .  S
C1366      C1367   1.385       .  A
C1367      C1368   1.391       .  A
C1367      H1377   1.073       .  S
C1368      C1369   1.401       .  A
C1369      H1378   1.084       .  S
C1370      C1371   1.388       .  A
C1370      H1379   1.077       .  S
C1371      C1372   1.397       .  A
C1372      H1380   1.085       .  S
C1381      C1382   1.394       .  A
C1381      C1386   1.401       .  A
C1381      H1397   1.084       .  S
C1382      C1383   1.402       .  A
C1382      H1398   1.084       .  S
C1383      C1393   1.389       .  A
C1383      C1384   1.410       .  A
C1384      C1390   1.411       .  A
C1384      C1385   1.395       .  A
C1385      C1387   1.409       .  A
C1385      C1386   1.410       .  A
C1386      C1394   1.389       .  A
C1387      C1396   1.387       .  A
C1387      C1388   1.400       .  A
C1388      C1389   1.393       .  A
C1388      H1399   1.083       .  S
C1389      C1390   1.402       .  A
C1389      H1400   1.084       .  S
C1390      C1391   1.390       .  A
C1391      C1392   1.399       .  A
C1391      H1401   1.084       .  S
C1392      C1393   1.398       .  A
C1393      H1402   1.084       .  S
C1394      C1395   1.398       .  A
C1394      H1403   1.084       .  S
C1395      N3134   1.414   1_455  S
C1395      C1396   1.395       .  A
C1396      H1404   1.083       .  S
C1405      C1406   1.392       .  A
C1405      C1410   1.401       .  A
C1405      H1421   1.084       .  S
C1406      C1407   1.400       .  A
C1406      H1422   1.084       .  S
C1407      C1417   1.387       .  A
C1407      C1408   1.411       .  A
C1408      C1414   1.410       .  A
C1408      C1409   1.394       .  A
C1409      C1411   1.411       .  A
C1409      C1410   1.410       .  A
C1410      C1418   1.387       .  A
C1411      C1420   1.389       .  A
C1411      C1412   1.402       .  A
C1412      C1413   1.393       .  A
C1412      H1423   1.084       .  S
C1413      C1414   1.401       .  A
C1413      H1424   1.084       .  S
C1414      C1415   1.387       .  A
C1415      C1416   1.396       .  A
C1415      H1425   1.084       .  S
C1416      C1417   1.395       .  A
C1417      H1426   1.084       .  S
C1418      C1419   1.398       .  A
C1418      H1427   1.084       .  S
C1419      N3054   1.416       .  S
C1419      C1420   1.398       .  A
C1420      H1428   1.084       .  S
C1429      C1430   1.386       .  A
C1429      C1434   1.398       .  A
C1429      H1445   1.083       .  S
C1430      C1431   1.399       .  A
C1430      H1446   1.084       .  S
C1431      C1441   1.372       .  A
C1431      C1432   1.409       .  A
C1432      C1438   1.410       .  A
C1432      C1433   1.384       .  A
C1433      C1435   1.410       .  A
C1433      C1434   1.406       .  A
C1434      C1442   1.372       .  A
C1435      C1444   1.388       .  A
C1435      C1436   1.400       .  A
C1436      C1437   1.392       .  A
C1436      H1447   1.080       .  S
C1437      C1438   1.399       .  A
C1437      H1448   1.082       .  S
C1438      C1439   1.384       .  A
C1439      C1440   1.393       .  A
C1439      H1449   1.083       .  S
C1440      C1441   1.395       .  A
C1441      H1450   1.085       .  S
C1442      C1443   1.399       .  A
C1442      H1451   1.085       .  S
C1443      C1444   1.397       .  A
C1444      H1452   1.080       .  S
C1453      C1454   1.384       .  A
C1453      C1458   1.397       .  A
C1453      H1469   1.084   1_455  S
C1454      C1455   1.398       .  A
C1454      H1470   1.083   1_455  S
C1455      C1465   1.370       .  A
C1455      C1456   1.406       .  A
C1456      C1462   1.412       .  A
C1456      C1457   1.386       .  A
C1457      C1459   1.410       .  A
C1457      C1458   1.410       .  A
C1458      C1466   1.371       .  A
C1459      C1468   1.391       .  A
C1459      C1460   1.402       .  A
C1460      C1461   1.396       .  A
C1460      H1471   1.082       .  S
C1461      C1462   1.400       .  A
C1461      H1472   1.082       .  S
C1462      C1463   1.392       .  A
C1463      H1473   1.082       .  S
C1465      H1474   1.085       .  S
C1466      C1467   1.392       .  A
C1466      H1475   1.085       .  S
C1467      C1468   1.399       .  A
C1468      H1476   1.083       .  S
N1477      C1481   1.358       .  A
N1477      C1478   1.368       .  A
N1477      C1959   1.406       .  S
C1478      C1479   1.379       .  A
C1478      C1628   1.520       .  S
C1479      C1480   1.390       .  A
C1479      H1482   1.079       .  S
C1480      C1481   1.394       .  A
C1480      H1483   1.083       .  S
C1481      C1768   1.531       .  S
N1484      C1488   1.361       .  A
N1484      C1485   1.372       .  A
N1484      C1956   1.406       .  S
C1485      C1486   1.381       .  A
C1485      C1708   1.513       .  S
C1486      C1487   1.384       .  A
C1486      H1489   1.082       .  S
C1487      C1488   1.393       .  A
C1487      H1490   1.082       .  S
C1488      C1514   1.535       .  S
Zr1491     O1492   2.439       .  S
Zr1491     O1493   2.543       .  S
Zr1491     O1494   2.384       .  S
Zr1491     O1497   2.378       .  S
Zr1491     O1499   2.371       .  S
Zr1491     O1500   2.374       .  S
Zr1491     O1501   2.436       .  S
Zr1491     O1502   2.434       .  S
O1492      H1548   0.990       .  S
O1492      H1556   0.989       .  S
O1493      C1513   1.305       .  A
O1494      C1515   1.272       .  A
O1495      C1514   1.315       .  A
O1496     Zr1504   2.570       .  S
O1496      C1515   1.312       .  A
O1497      C1514   1.274       .  A
O1498     Zr1506   2.538       .  S
O1498      C1513   1.299       .  A
O1499     Zr1504   2.411       .  S
O1499     Zr1506   2.367       .  S
O1500     Zr1506   2.372       .  S
O1500      H1535   0.966       .  S
O1501     Zr1504   2.414       .  S
O1501     Zr1521   2.446       .  S
O1501      H1538   0.969       .  S
O1502     Zr1521   2.439       .  S
Zr1503     O1528   2.441       .  S
Zr1503     O1518   2.363       .  S
Zr1503     O1509   2.422       .  S
Zr1503     O1510   2.429       .  S
Zr1503     O1511   2.370       .  S
Zr1504     O1523   2.437       .  S
Zr1504     O1516   2.433       .  S
Zr1504     O1517   2.576       .  S
Zr1504     O1510   2.406       .  S
Zr1504     O1511   2.418       .  S
Zr1505     O1507   2.436       .  S
Zr1505     O1529   2.432       .  S
Zr1505     O1531   2.611       .  S
Zr1505     O1512   2.402       .  S
Zr1506     O1532   2.440       .  S
Zr1506     O1533   2.436       .  S
Zr1506     O1508   2.438       .  S
Zr1506     O1509   2.446       .  S
Zr1506     O1510   2.433       .  S
O1507      H1544   0.990       .  S
O1508      H1539   0.989       .  S
O1508      H1553   0.990       .  S
O1510      H1536   0.966       .  S
O1511     Zr1521   2.374       .  S
O1512      H1537   0.966       .  S
C1513      C1572   1.590       .  S
C1515      C1732   1.516       .  S
O1516      H1552   0.990       .  S
O1517      C1519   1.313       .  A
O1518      C1519   1.271       .  A
C1519      C1568   1.528       .  S
O1520     Zr1521   2.435       .  S
O1520      H1549   0.990       .  S
Zr1521     O1524   2.436       .  S
O1522      C1527   1.303       .  A
O1523      H1540   0.990       .  S
O1523      H1555   0.990       .  S
O1524      H1541   0.990       .  S
O1525      H1545   0.989       .  S
O1525      H1554   0.989       .  S
O1526      C1527   1.303       .  A
C1527      C1655   1.581       .  S
O1528      H1547   0.990       .  S
O1528      H1551   0.990       .  S
O1529      H1543   0.990       .  S
O1530      C1534   1.269       .  A
O1531      C1534   1.322       .  A
O1532      H1542   0.990       .  S
O1533      H1546   0.990       .  S
C1534      C1812   1.526       .  S
N1557      C1561   1.371       .  A
N1557      C1558   1.355       .  A
N1557      C1935   1.408       .  S
C1558      C1559   1.394       .  A
C1558      C1773   1.529       .  S
C1559      C1560   1.389       .  A
C1559      H1562   1.082       .  S
C1560      C1561   1.379       .  A
C1560      H1563   1.080       .  S
C1561      C1609   1.513       .  S
N1564      C1568   1.357       .  A
N1564      C1565   1.370       .  A
N1564      C1932   1.407       .  S
C1565      C1689   1.509       .  S
C1566      C1567   1.387       .  A
C1566      H1569   1.083   1_545  S
C1567      H1570   1.082   1_545  S
N1571      C1575   1.395       .  A
N1571      C1572   1.397       .  A
N1571      C1908   1.419       .  S
C1572      C1573   1.388       .  A
C1573      C1574   1.399       .  A
C1573      H1576   1.082       .  S
C1574      C1575   1.385       .  A
C1574      H1577   1.081       .  S
C1575      C1767   1.588       .  S
N1578      C1582   1.391       .  A
N1578      C1579   1.392       .  A
N1578      C3879   1.414   1_455  S
C1579      C1580   1.386       .  A
C1579      C1621   1.587       .  S
C1580      C1581   1.402       .  A
C1580      H1583   1.081       .  S
C1581      C1582   1.388       .  A
C1581      H1584   1.082       .  S
C1582      C1701   1.587       .  S
Zr1585     O1586   2.442       .  S
Zr1585     O1587   2.554       .  S
Zr1585     O1588   2.391       .  S
Zr1585     O1591   2.406       .  S
Zr1585     O1593   2.379       .  S
Zr1585     O1594   2.373       .  S
Zr1585     O1595   2.447       .  S
Zr1585     O1596   2.437       .  S
O1586      H1642   0.991       .  S
O1586      H1650   0.991       .  S
O1587      C1607   1.307       .  A
O1588      C1609   1.266       .  A
O1589     Zr1599   2.586       .  S
O1589      C1608   1.315       .  A
O1590     Zr1598   2.568       .  S
O1590      C1609   1.308       .  A
O1591      C1608   1.280       .  A
O1592     Zr1600   2.540       .  S
O1592      C3575   1.301   1_455  A
O1593     Zr1598   2.414       .  S
O1593     Zr3568   2.358       .  S
O1594     Zr1599   2.423       .  S
O1594     Zr3568   2.372       .  S
O1594      H1629   0.969       .  S
O1595     Zr1598   2.414       .  S
O1595     Zr1615   2.437       .  S
O1595      H1632   0.965       .  S
O1596     Zr1599   2.413       .  S
O1596     Zr1615   2.440       .  S
Zr1597     O1622   2.443       .  S
Zr1597     O1616   2.552       .  S
Zr1597     O1624   2.398       .  S
Zr1597     O1612   2.399       .  S
Zr1597     O1603   2.444       .  S
Zr1597     O1604   2.446       .  S
Zr1597     O1605   2.375       .  S
Zr1597     O1606   2.381   1_455  S
Zr1598     O1617   2.431       .  S
Zr1598     O3578   2.429       .  S
Zr1598     O3579   2.573       .  S
Zr1598     O3572   2.398       .  S
Zr1598     O3573   2.414       .  S
Zr1599     O1601   2.434       .  S
Zr1599     O3591   2.432       .  S
Zr1599     O3593   2.588       .  S
Zr1599     O3571   2.407       .  S
Zr1599     O3574   2.419       .  S
Zr1600     O1626   2.437       .  S
Zr1600     O1627   2.440       .  S
Zr1600     O1602   2.440       .  S
Zr1600     O3561   2.355       .  S
Zr1600     O3562   2.374   1_455  S
Zr1600     O1603   2.447       .  S
Zr1600     O1604   2.430       .  S
O1601      H1638   0.991       .  S
O1602      H1633   0.990       .  S
O1602      H1647   0.989       .  S
O1603     Zr3567   2.418   1_455  S
O1604     Zr3566   2.402       .  S
O1604      H1630   0.972       .  S
O1605     Zr3566   2.422       .  S
O1605     Zr3583   2.372   1_455  S
O1606     Zr3567   2.434       .  S
O1606     Zr3583   2.349       .  S
O1606      H1631   0.964       .  S
C1607      C1659   1.590       .  S
C1607      O3560   1.297       .  A
C1608      C1815   1.543       .  S
O1610     Zr3566   2.433       .  S
O1610      H1646   0.989       .  S
O1611     Zr3566   2.541       .  S
O1611      C1613   1.307       .  A
O1612      C1613   1.277       .  A
C1613      C1735   1.523       .  S
O1614     Zr1615   2.439       .  S
O1614      H1643   0.989       .  S
Zr1615     O1618   2.436       .  S
Zr1615     O1619   2.426       .  S
Zr1615     O1620   2.551       .  S
Zr1615     O3573   2.382       .  S
Zr1615     O3574   2.351       .  S
O1616      C1621   1.307       .  A
O1617      H1634   0.990       .  S
O1617      H1649   0.989       .  S
O1618      H1635   0.990       .  S
O1619      H1639   0.988       .  S
O1619      H1648   0.990       .  S
O1620      C3589   1.303       .  A
C1621      O3588   1.301   1_455  A
O1622      H1641   0.991       .  S
O1622      H1645   0.990       .  S
O1623     Zr3567   2.432       .  S
O1623      H1637   0.990       .  S
O1623      H1644   0.990   1_655  S
O1624      C1628   1.268       .  A
O1625     Zr3567   2.568   1_455  S
O1625      C1628   1.307       .  A
O1626      H1636   0.989       .  S
O1627      H1640   0.989       .  S
N1651      C1655   1.393       .  A
N1651      C1652   1.391       .  A
N1651      C1884   1.420       .  S
C1652      C1653   1.386       .  A
C1652      C1781   1.579       .  S
C1653      C1654   1.397       .  A
C1653      H1656   1.081       .  S
C1654      C1655   1.387       .  A
C1654      H1657   1.082       .  S
N1658      C1662   1.397       .  A
N1658      C1659   1.395       .  A
N1658      C3855   1.417       .  S
C1659      C1660   1.387       .  A
C1660      C1661   1.402       .  A
C1660      H1663   1.082       .  S
C1661      C1662   1.388       .  A
C1661      H1664   1.081       .  S
C1662      C1687   1.597       .  S
Zr1665     O1666   2.442       .  S
Zr1665     O1668   2.358       .  S
Zr1665     O1673   2.364       .  S
Zr1665     O1675   2.434       .  S
O1666      H1722   0.990       .  S
O1666      H1730   0.991       .  S
O1667      C1687   1.305       .  A
O1668      C1689   1.267       .  A
O1669     Zr1679   2.573   1_565  S
O1669      C1688   1.313       .  A
O1670     Zr1678   2.585       .  S
O1670      C1689   1.315       .  A
O1672      C3655   1.298   1_455  A
O1673     Zr1678   2.401       .  S
O1673     Zr3648   2.353       .  S
O1674     Zr2664   2.379       .  S
O1674      H1709   0.966       .  S
O1675     Zr1678   2.407       .  S
O1675      H1712   0.967       .  S
O1676     Zr1695   2.438       .  S
Zr1677     O1702   2.442       .  S
Zr1677     O1696   2.534       .  S
Zr1677     O1704   2.359       .  S
Zr1677     O1692   2.379       .  S
Zr1677     O1683   2.430       .  S
Zr1677     O1685   2.377       .  S
Zr1677     O1686   2.382   1_455  S
Zr1678     O1697   2.431       .  S
Zr1678     O3658   2.431       .  S
Zr1678     O3659   2.564       .  S
Zr1678     O3652   2.405       .  S
Zr1678     O3161   2.423   1_556  S
Zr1679     O1681   2.435       .  S
Zr1679     O3671   2.432   1_545  S
Zr1679     O2689   2.566       .  S
Zr1679     O2667   2.415       .  S
Zr1679     O2670   2.432       .  S
Zr1680     O1707   2.436   1_556  S
Zr1680     O1682   2.438       .  S
Zr1680     O3641   2.359       .  S
Zr1680     O2658   2.371   1_455  S
Zr1680     O1684   2.438       .  S
O1681      H1718   0.990       .  S
O1682      H1713   0.989       .  S
O1682      H1727   0.989       .  S
O1683     Zr2663   2.412   1_455  S
O1684     Zr3646   2.402       .  S
O1684      H1710   0.969       .  S
O1685     Zr3154   2.420       .  S
O1685     Zr3663   2.369   1_455  S
O1686     Zr2663   2.416       .  S
O1686     Zr3663   2.364       .  S
O1686      H1711   0.965       .  S
C1687      O3640   1.303       .  A
O1690     Zr3646   2.431       .  S
O1690      H1726   0.990       .  S
O1691     Zr3646   2.568       .  S
O1691      C1693   1.314       .  A
O1694     Zr1695   2.437       .  S
O1694      H1723   0.990       .  S
Zr1695     O1698   2.436       .  S
Zr1695     O1699   2.425       .  S
Zr1695     O1700   2.538       .  S
Zr1695     O3653   2.374       .  S
Zr1695     O3654   2.361       .  S
O1696      C1701   1.303       .  A
O1697      H1714   0.990       .  S
O1697      H1729   0.990       .  S
O1698      H1715   0.990       .  S
O1699      H1719   0.990       .  S
O1699      H1728   0.989       .  S
O1700      C3669   1.300       .  A
C1701      O3668   1.305   1_455  A
O1702      H1721   0.991       .  S
O1703     Zr3647   2.432   1_565  S
O1703      H1717   0.990       .  S
O1703      H1724   0.990   1_655  S
O1704      C1708   1.267       .  A
O1705     Zr2663   2.588   1_455  S
O1705      C1708   1.317       .  A
O1706      H1716   0.990       .  S
O1707      H1720   0.990       .  S
N1731      C1735   1.357       .  A
N1731      C1732   1.377       .  A
N1731      C1860   1.417       .  S
C1732      C1733   1.384       .  A
C1733      C1734   1.389       .  A
C1733      H1736   1.082       .  S
C1734      C1735   1.387       .  A
C1734      H1737   1.082       .  S
N1738      C1863   1.409       .  S
C1739      C1740   1.387       .  A
C1740      C1741   1.392       .  A
C1740      H1743   1.082       .  S
C1741      C1742   1.387       .  A
C1741      H1744   1.083       .  S
Zr1745     O1746   2.439       .  S
Zr1745     O1747   2.541       .  S
Zr1745     O1748   2.381       .  S
Zr1745     O1751   2.385       .  S
Zr1745     O1753   2.374       .  S
Zr1745     O1754   2.369       .  S
Zr1745     O1756   2.432       .  S
O1746      H1802   0.990       .  S
O1746      H1810   0.989       .  S
O1747      C1767   1.304       .  A
O1749     Zr1759   2.573       .  S
O1749      C1768   1.312       .  A
O1750     Zr1758   2.580       .  S
O1750      C1769   1.315       .  A
O1751      C1768   1.275       .  A
O1752     Zr1760   2.534       .  S
O1752      C1767   1.299       .  A
O1753     Zr1760   2.361       .  S
O1754     Zr1759   2.421       .  S
O1754     Zr1760   2.376       .  S
O1754      H1789   0.965       .  S
O1755     Zr1758   2.415       .  S
O1755     Zr1775   2.443       .  S
O1755      H1792   0.966       .  S
O1756     Zr1759   2.408       .  S
Zr1757     O1782   2.442       .  S
Zr1757     O1776   2.531       .  S
Zr1757     O1784   2.390   1_556  S
Zr1757     O1772   2.372       .  S
Zr1757     O1764   2.441   1_556  S
Zr1757     O1765   2.373       .  S
Zr1757     O1766   2.374       .  S
Zr1758     O1777   2.435       .  S
Zr1758     O1770   2.438       .  S
Zr1758     O1771   2.575       .  S
Zr1758     O1764   2.410   1_556  S
Zr1758     O1765   2.415       .  S
Zr1759     O1761   2.434       .  S
Zr1759     O1783   2.434       .  S
Zr1759     O1785   2.563       .  S
Zr1759     O1763   2.418       .  S
Zr1760     O1786   2.435       .  S
Zr1760     O1787   2.435       .  S
Zr1760     O1762   2.442       .  S
Zr1760     O1763   2.448       .  S
O1761      H1798   0.991       .  S
O1762      H1793   0.990       .  S
O1762      H1807   0.989       .  S
O1764      H1790   0.965       .  S
O1765     Zr1775   2.373       .  S
O1766     Zr1775   2.356       .  S
O1766      H1791   0.965       .  S
O1770      H1806   0.989       .  S
O1771      C1773   1.313       .  A
O1772      C1773   1.271       .  A
O1774     Zr1775   2.434       .  S
O1774      H1803   0.990       .  S
Zr1775     O1778   2.438       .  S
Zr1775     O1779   2.430       .  S
Zr1775     O1780   2.547       .  S
O1776      C1781   1.303       .  A
O1777      H1794   0.989       .  S
O1777      H1809   0.990       .  S
O1778      H1795   0.990       .  S
O1779      H1799   0.990       .  S
O1779      H1808   0.990       .  S
O1780      C1781   1.302       .  A
O1782      H1805   0.990   1_556  S
O1783      H1797   0.990       .  S
O1783      H1804   0.990       .  S
O1785      C1788   1.303       .  A
O1786      H1796   0.989       .  S
O1787      H1800   0.990       .  S
N1811      C1815   1.366       .  A
N1811      C1812   1.372       .  A
N1811      C1836   1.408       .  S
C1812      C1813   1.381       .  A
C1813      C1814   1.390       .  A
C1813      H1816   1.082       .  S
C1814      C1815   1.395       .  A
C1814      H1817   1.082       .  S
N1818      C1839   1.405       .  S
C1819      C1820   1.380   1_554  A
C1820      C1821   1.389       .  A
C1820      H1823   1.081       .  S
C1821      C1822   1.395   1_556  A
C1821      H1824   1.083       .  S
C1825      C1826   1.383       .  A
C1825      C1830   1.397       .  A
C1825      H1841   1.084       .  S
C1826      C1827   1.397       .  A
C1826      H1842   1.083       .  S
C1827      C1837   1.366       .  A
C1827      C1828   1.405       .  A
C1828      C1834   1.413       .  A
C1828      C1829   1.386       .  A
C1829      C1831   1.409       .  A
C1829      C1830   1.411       .  A
C1830      C1838   1.372       .  A
C1831      C1840   1.388       .  A
C1831      C1832   1.401       .  A
C1832      C1833   1.395       .  A
C1832      H1843   1.082       .  S
C1833      C1834   1.401       .  A
C1833      H1844   1.080       .  S
C1834      C1835   1.394       .  A
C1835      C1836   1.397       .  A
C1835      H1845   1.082       .  S
C1836      C1837   1.395       .  A
C1837      H1846   1.085       .  S
C1838      C1839   1.391       .  A
C1838      H1847   1.085       .  S
C1839      C1840   1.397       .  A
C1840      H1848   1.083       .  S
C1849      C1850   1.391       .  A
C1849      C1854   1.397       .  A
C1849      H1865   1.080       .  S
C1850      C1851   1.402       .  A
C1850      H1866   1.082       .  S
C1851      C1861   1.384       .  A
C1851      C1852   1.407       .  A
C1852      C1858   1.412       .  A
C1852      C1853   1.390       .  A
C1853      C1855   1.407       .  A
C1853      C1854   1.412       .  A
C1854      C1862   1.386       .  A
C1855      C1864   1.377       .  A
C1855      C1856   1.399       .  A
C1856      C1857   1.388       .  A
C1856      H1867   1.083       .  S
C1857      C1858   1.397       .  A
C1857      H1868   1.081       .  S
C1858      C1859   1.383       .  A
C1859      C1860   1.390       .  A
C1859      H1869   1.076       .  S
C1860      C1861   1.403       .  A
C1861      H1870   1.084       .  S
C1862      C1863   1.390       .  A
C1862      H1871   1.076       .  S
C1863      C1864   1.397       .  A
C1864      H1872   1.085       .  S
C1873      C1874   1.394       .  A
C1873      C1878   1.400       .  A
C1873      H1889   1.083       .  S
C1874      C1875   1.401       .  A
C1874      H1890   1.084       .  S
C1875      C1885   1.391       .  A
C1875      C1876   1.410       .  A
C1876      C1882   1.410       .  A
C1876      C1877   1.397       .  A
C1877      C1879   1.410       .  A
C1877      C1878   1.410       .  A
C1878      C1886   1.390       .  A
C1879      C1888   1.390       .  A
C1879      C1880   1.400       .  A
C1880      C1881   1.394       .  A
C1880      H1891   1.083       .  S
C1881      C1882   1.402       .  A
C1881      H1892   1.084       .  S
C1882      C1883   1.391       .  A
C1883      C1884   1.400       .  A
C1883      H1893   1.084       .  S
C1884      C1885   1.399       .  A
C1885      H1894   1.084       .  S
C1886      C1887   1.398       .  A
C1886      H1895   1.084       .  S
C1887      N3626   1.417   1_455  S
C1887      C1888   1.397       .  A
C1888      H1896   1.083       .  S
C1897      C1898   1.395       .  A
C1897      C1902   1.402       .  A
C1897      H1913   1.084       .  S
C1898      C1899   1.402       .  A
C1898      H1914   1.083       .  S
C1899      C1909   1.391       .  A
C1899      C1900   1.409       .  A
C1900      C1906   1.410       .  A
C1900      C1901   1.395       .  A
C1901      C1903   1.410       .  A
C1901      C1902   1.411       .  A
C1902      C1910   1.390       .  A
C1903      C1912   1.388       .  A
C1903      C1904   1.401       .  A
C1904      C1905   1.393       .  A
C1904      H1915   1.084       .  S
C1905      C1906   1.400       .  A
C1905      H1916   1.084       .  S
C1906      C1907   1.389       .  A
C1907      C1908   1.396       .  A
C1907      H1917   1.083       .  S
C1908      C1909   1.400       .  A
C1909      H1918   1.083       .  S
C1910      C1911   1.398       .  A
C1910      H1919   1.083       .  S
C1911      N3546   1.414       .  S
C1911      C1912   1.397       .  A
C1912      H1920   1.084       .  S
C1921      C1922   1.385       .  A
C1921      C1926   1.397       .  A
C1921      H1937   1.084       .  S
C1922      C1923   1.398       .  A
C1922      H1938   1.084       .  S
C1923      C1933   1.371       .  A
C1923      C1924   1.406       .  A
C1924      C1930   1.411       .  A
C1924      C1925   1.385       .  A
C1925      C1927   1.409       .  A
C1925      C1926   1.409       .  A
C1926      C1934   1.373       .  A
C1927      C1936   1.388       .  A
C1927      C1928   1.402       .  A
C1928      C1929   1.394       .  A
C1928      H1939   1.081       .  S
C1929      C1930   1.401       .  A
C1929      H1940   1.082       .  S
C1930      C1931   1.389       .  A
C1931      C1932   1.398       .  A
C1931      H1941   1.082       .  S
C1932      C1933   1.395       .  A
C1933      H1942   1.085       .  S
C1934      C1935   1.394       .  A
C1934      H1943   1.085       .  S
C1935      C1936   1.398       .  A
C1936      H1944   1.082       .  S
C1945      C1946   1.386       .  A
C1945      C1950   1.399       .  A
C1945      H1961   1.083   1_455  S
C1946      C1947   1.399       .  A
C1946      H1962   1.084   1_455  S
C1947      C1957   1.373       .  A
C1947      C1948   1.408       .  A
C1948      C1954   1.410       .  A
C1948      C1949   1.385       .  A
C1949      C1951   1.411       .  A
C1949      C1950   1.408       .  A
C1950      C1958   1.373       .  A
C1951      C1960   1.388       .  A
C1951      C1952   1.401       .  A
C1952      C1953   1.394       .  A
C1952      H1963   1.083       .  S
C1953      C1954   1.400       .  A
C1953      H1964   1.081       .  S
C1954      C1955   1.388       .  A
C1955      H1965   1.082       .  S
C1957      H1966   1.085       .  S
C1958      C1959   1.396       .  A
C1958      H1967   1.085       .  S
C1959      C1960   1.396       .  A
C1960      H1968   1.082       .  S
N1969      C1973   1.360       .  A
N1969      C1970   1.371       .  A
N1969      C2451   1.406       .  S
C1970      C1971   1.380       .  A
C1970      C2120   1.517       .  S
C1971      C1972   1.389       .  A
C1971      H1974   1.082       .  S
C1972      C1973   1.395       .  A
C1972      H1975   1.082       .  S
C1973      C2260   1.536       .  S
N1976      C1980   1.357       .  A
N1976      C1977   1.369       .  A
N1976      C2448   1.404   1_545  S
C1977      C1978   1.380       .  A
C1977      C2200   1.522       .  S
C1978      C1979   1.392       .  A
C1978      H1981   1.080       .  S
C1979      C1980   1.395       .  A
C1979      H1982   1.082       .  S
C1980      C2006   1.535       .  S
Zr1983     O1984   2.437       .  S
Zr1983     O1985   2.536       .  S
Zr1983     O1986   2.376       .  S
Zr1983     O1989   2.387       .  S
Zr1983     O1991   2.376       .  S
Zr1983     O1992   2.368       .  S
Zr1983     O1993   2.441       .  S
Zr1983     O1994   2.429       .  S
O1984      H2040   0.990       .  S
O1984      H2048   0.988       .  S
O1985      C2005   1.303       .  A
O1986      C2007   1.271       .  A
O1987     Zr2981   2.584   1_545  S
O1987      C2006   1.315       .  A
O1988     Zr1996   2.584       .  S
O1988      C2007   1.315       .  A
O1989      C2006   1.275       .  A
O1990     Zr1998   2.542       .  S
O1990      C2005   1.300       .  A
O1991     Zr1996   2.417       .  S
O1991     Zr1998   2.364       .  S
O1992     Zr2981   2.427   1_545  S
O1992     Zr1998   2.368       .  S
O1992      H2027   0.967       .  S
O1993     Zr1996   2.424       .  S
O1993     Zr2013   2.449       .  S
O1993      H2030   0.968       .  S
O1994     Zr2981   2.408   1_545  S
O1994     Zr2013   2.435       .  S
Zr1995     O2020   2.442   1_545  S
Zr1995     O2998   2.543   1_545  S
Zr1995     O3006   2.372   1_545  S
Zr1995     O2010   2.374       .  S
Zr1995     O2001   2.428       .  S
Zr1995     O2002   2.435       .  S
Zr1995     O2003   2.372       .  S
Zr1995     O2988   2.371   1_545  S
Zr1996     O2015   2.434       .  S
Zr1996     O2008   2.437       .  S
Zr1996     O2009   2.595       .  S
Zr1996     O2002   2.407       .  S
Zr1996     O2003   2.422       .  S
Zr1997     O1999   2.434       .  S
Zr1997     O2021   2.436       .  S
Zr1997     O2971   2.567       .  S
Zr1997     O2023   2.570       .  S
Zr1997     O2976   2.427       .  S
Zr1997     O2978   2.408       .  S
Zr1997     O2985   2.412       .  S
Zr1997     O2004   2.430       .  S
Zr1998     O2024   2.438       .  S
Zr1998     O2025   2.436       .  S
Zr1998     O2000   2.439       .  S
Zr1998     O2001   2.446       .  S
Zr1998     O2002   2.439       .  S
O1999      H2036   0.990       .  S
O2000      H2031   0.990       .  S
O2000      H2045   0.990       .  S
O2001     Zr2981   2.409   1_545  S
O2002      H2028   0.968       .  S
O2003     Zr2013   2.379       .  S
O2004     Zr2979   2.382       .  S
O2004     Zr2997   2.362       .  S
O2004      H2029   0.965       .  S
C2005      C2064   1.585       .  S
C2007      C2224   1.519       .  S
O2008      H2044   0.990       .  S
O2009      C2011   1.316       .  A
O2010      C2011   1.272       .  A
C2011      C2060   1.540       .  S
O2012     Zr2013   2.434       .  S
O2012      H2041   0.990       .  S
Zr2013     O2016   2.436       .  S
Zr2013     O3001   2.429   1_545  S
Zr2013     O3002   2.550   1_545  S
Zr2013     O2988   2.353   1_545  S
O2014     Zr2979   2.536       .  S
O2014      C2019   1.303       .  A
O2015      H2032   0.990       .  S
O2015      H2047   0.990       .  S
O2016      H2033   0.990       .  S
O2017     Zr2997   2.427       .  S
O2017      H2037   0.989       .  S
O2017      H2046   0.989       .  S
O2018     Zr2997   2.544       .  S
O2018      C2019   1.302       .  A
C2019      C2147   1.580       .  S
O2020      H2039   0.990   1_565  S
O2020      H2043   0.991       .  S
O2021      H2035   0.989       .  S
O2021      H3026   0.990       .  S
O2022     Zr2979   2.398       .  S
O2022      C2026   1.266       .  A
O2023      C2026   1.306       .  A
O2024      H2034   0.989       .  S
O2025      H2038   0.990       .  S
C2026      C2304   1.523       .  S
H2042      O3005   0.990       .  S
N2049      C2053   1.372       .  A
N2049      C2050   1.356       .  A
N2049      C2427   1.410       .  S
C2050      C2051   1.394       .  A
C2050      C2265   1.529       .  S
C2051      C2052   1.389       .  A
C2051      H2054   1.082       .  S
C2052      C2053   1.380       .  A
C2052      H2055   1.081       .  S
C2053      C2101   1.515       .  S
N2056      C2060   1.361       .  A
N2056      C2057   1.372       .  A
N2056      C2424   1.407       .  S
C2057      C3042   1.380       .  A
C2057      C2181   1.514       .  S
C2058      C3041   1.379       .  A
C2058      C2059   1.385       .  A
C2058      H2061   1.083       .  S
C2059      C3044   1.395       .  A
C2059      H2062   1.082       .  S
C2060      C3043   1.395       .  A
N2063      C2067   1.392       .  A
N2063      C2064   1.392       .  A
N2063      C2400   1.416       .  S
C2064      C2065   1.388       .  A
C2065      C2066   1.400       .  A
C2065      H2068   1.082       .  S
C2066      C2067   1.386       .  A
C2066      H2069   1.082       .  S
C2067      C2259   1.581       .  S
N2070      C2074   1.393       .  A
N2070      C2071   1.392       .  A
C2071      C2072   1.386       .  A
C2071      C2113   1.586       .  S
C2072      C2073   1.401       .  A
C2072      H2075   1.081       .  S
C2073      C2074   1.388       .  A
C2073      H2076   1.082       .  S
C2074      C2193   1.585       .  S
Zr2077     O2078   2.441       .  S
Zr2077     O2079   2.545       .  S
Zr2077     O2080   2.367       .  S
Zr2077     O2083   2.389       .  S
Zr2077     O2085   2.374   1_655  S
Zr2077     O2086   2.376       .  S
Zr2077     O2087   2.439       .  S
Zr2077     O2088   2.430       .  S
O2078      H2134   0.990       .  S
O2078      H2142   0.990       .  S
O2079      C2099   1.306       .  A
O2080      C2101   1.265       .  A
O2081     Zr2091   2.584       .  S
O2081      C2100   1.315       .  A
O2082     Zr2090   2.588   1_655  S
O2082      C2101   1.314       .  A
O2083      C2100   1.274       .  A
O2084     Zr2092   2.542       .  S
O2085     Zr2090   2.400       .  S
O2086     Zr2091   2.418       .  S
O2086      H2121   0.966       .  S
O2087     Zr2090   2.400   1_655  S
O2087     Zr2107   2.433       .  S
O2087      H2124   0.968       .  S
O2088     Zr2091   2.404       .  S
O2088     Zr2107   2.441       .  S
Zr2089     O2114   2.443       .  S
Zr2089     O2108   2.539       .  S
Zr2089     O2116   2.358       .  S
Zr2089     O2104   2.400       .  S
Zr2089     O2095   2.437       .  S
Zr2089     O2096   2.438       .  S
Zr2089     O2097   2.373       .  S
Zr2089     O2098   2.383       .  S
Zr2090     O2109   2.432       .  S
Zr2091     O2093   2.436       .  S
Zr2092     O2118   2.436       .  S
Zr2092     O2119   2.437       .  S
Zr2092     O2094   2.439       .  S
Zr2092     O2095   2.448       .  S
Zr2092     O2096   2.434       .  S
O2093      H2130   0.991       .  S
O2094      H2125   0.990       .  S
O2094      H2139   0.989       .  S
O2096      H2122   0.965       .  S
O2098      H2123   0.964       .  S
C2099      C2151   1.592       .  S
C2100      C2307   1.533       .  S
O2102      H2138   0.990       .  S
O2103      C2105   1.309       .  A
O2104      C2105   1.275       .  A
C2105      C2227   1.528       .  S
O2106     Zr2107   2.439       .  S
O2106      H2135   0.990       .  S
Zr2107     O2110   2.435       .  S
Zr2107     O2111   2.429       .  S
Zr2107     O2112   2.552       .  S
O2108      C2113   1.305       .  A
O2109      H2126   0.990       .  S
O2109      H2141   0.989       .  S
O2110      H2127   0.991       .  S
O2111      H2131   0.990       .  S
O2111      H2140   0.990       .  S
O2114      H2133   0.990       .  S
O2114      H2137   0.991       .  S
O2115      H2129   0.989       .  S
O2115      H2136   0.990       .  S
O2116      C2120   1.268       .  A
O2117      C2120   1.319       .  A
O2118      H2128   0.989       .  S
O2119      H2132   0.990       .  S
N2143      C2147   1.389       .  A
N2143      C2144   1.389       .  A
N2143      C2376   1.416       .  S
C2144      C2145   1.386       .  A
C2144      C2273   1.579       .  S
C2145      C2146   1.399       .  A
C2145      H2148   1.081       .  S
C2146      C2147   1.388       .  A
C2146      H2149   1.082       .  S
N2150      C2154   1.397       .  A
N2150      C2151   1.396       .  A
C2151      C2152   1.388       .  A
C2152      C2153   1.401       .  A
C2152      H2155   1.082       .  S
C2153      C2154   1.387       .  A
C2153      H2156   1.081       .  S
C2154      C2179   1.592       .  S
Zr2157     O2158   2.440       .  S
Zr2157     O3143   2.539   1_545  S
Zr2157     O2160   2.362       .  S
Zr2157     O3147   2.373   1_545  S
Zr2157     O2165   2.364   1_655  S
Zr2157     O3150   2.373   1_545  S
Zr2157     O2167   2.433       .  S
Zr2157     O2660   2.433       .  S
O2158      H2214   0.990       .  S
O2158      H2222   0.991       .  S
O2159     Zr3141   2.549       .  S
O2159      C2179   1.306       .  A
O2160      C2181   1.269       .  A
O2161     Zr2171   2.589       .  S
O2161      C2180   1.316       .  A
O2162     Zr2170   2.587       .  S
O2162      C2181   1.317   1_455  A
O2163     Zr3141   2.383       .  S
O2163      C2672   1.275       .  A
O2164     Zr3156   2.543       .  S
O2165     Zr2170   2.400       .  S
O2166     Zr3141   2.371       .  S
O2166     Zr2663   2.421       .  S
O2166      H2201   0.966       .  S
O2167     Zr2170   2.400   1_655  S
O2167     Zr2679   2.444       .  S
O2167      H2204   0.967       .  S
O2168     Zr2649   2.444   1_554  S
O2168     Zr3155   2.417       .  S
O2168     Zr2187   2.445       .  S
Zr2169     O2194   2.443       .  S
Zr2169     O2188   2.550       .  S
Zr2169     O2196   2.396       .  S
Zr2169     O2184   2.400       .  S
Zr2169     O2175   2.442       .  S
Zr2169     O2668   2.442   1_554  S
Zr2169     O2177   2.372       .  S
Zr2169     O2178   2.382       .  S
Zr2170     O2189   2.434       .  S
Zr2171     O2173   2.436       .  S
Zr2171     O2658   2.422   1_554  S
Zr2171     O3152   2.409       .  S
Zr2172     O3182   2.437       .  S
Zr2172     O2199   2.435       .  S
Zr2172     O2174   2.439       .  S
Zr2172     O3148   2.541       .  S
Zr2172     O2667   2.449   1_565  S
Zr2172     O2176   2.433   1_565  S
O2173      H2210   0.990       .  S
O2174      H2205   0.990       .  S
O2174      H2219   0.989   1_565  S
O2175     Zr2664   2.452   1_544  S
O2176     Zr2661   2.444       .  S
O2176      H2202   0.962       .  S
O2178      H2203   0.965       .  S
C2180      C2806   1.531   1_554  S
C2180      O2655   1.273   1_554  A
O2182      H2218   0.990       .  S
O2183      C2185   1.315       .  A
O2184      C2677   1.277   1_554  A
C2185      C2723   1.535       .  S
C2185      O2676   1.274       .  A
O2186     Zr2187   2.444   1_556  S
O2186      H2215   0.990       .  S
Zr2187     O2190   2.438       .  S
Zr2187     O2191   2.434       .  S
Zr2187     O2192   2.555       .  S
Zr2187     O2659   2.439   1_554  S
O2188      C2193   1.307       .  A
O2189      H2206   0.990       .  S
O2189      H2221   0.990       .  S
O2190      H2207   0.990   1_655  S
O2191      H2211   0.990       .  S
O2191      H2220   0.990       .  S
O2194      H2213   0.991       .  S
O2194      H2709   0.990       .  S
O2195      H2209   0.990       .  S
O2195      H2216   0.990       .  S
O2196      C2200   1.266       .  A
O2197      C2200   1.307       .  A
O2198     Zr3156   2.439       .  S
O2198      H2208   0.990       .  S
O2199      H2212   0.990       .  S
H2217      O2686   0.991       .  S
N2223      C2227   1.355       .  A
N2223      C2224   1.376       .  A
N2223      C2352   1.412       .  S
C2224      C2225   1.387       .  A
C2225      C2226   1.393       .  A
C2225      H2228   1.082       .  S
C2226      C2227   1.387       .  A
C2226      H2229   1.082       .  S
N2230      C2726   1.376       .  A
N2230      C2723   1.357       .  A
N2230      C2355   1.409       .  S
C2231      N2722   1.362       .  A
C2231      C2232   1.388   1_556  A
C2231      C2677   1.534       .  S
C2232      C2233   1.391       .  A
C2232      H2235   1.082       .  S
C2233      C2234   1.385   1_554  A
C2233      H2236   1.082       .  S
C2234      N2722   1.378       .  A
C2234      C2753   1.521       .  S
Zr2237     O2238   2.436   1_554  S
Zr2237     O2239   2.540       .  S
Zr2237     O2240   2.381   1_554  S
Zr2237     O2243   2.380       .  S
Zr2237     O2245   2.368       .  S
Zr2237     O2246   2.367       .  S
Zr2237     O2739   2.435   1_554  S
Zr2237     O2248   2.424   1_554  S
O2238      H2294   0.990       .  S
O2238      H2302   0.988       .  S
O2239      C2259   1.306       .  A
O2240      C2753   1.274       .  A
O2241     Zr2251   2.588       .  S
O2241      C2260   1.315       .  A
O2242     Zr2250   2.577       .  S
O2242      C2261   1.314       .  A
O2243      C2260   1.275       .  A
O2244     Zr2252   2.526       .  S
O2244      C2259   1.298       .  A
O2245     Zr2742   2.405   1_554  S
O2245     Zr2252   2.361       .  S
O2246     Zr2251   2.419       .  S
O2246     Zr2252   2.377       .  S
O2246      H2281   0.967       .  S
O2247     Zr2729   2.436       .  S
O2247     Zr2250   2.415       .  S
O2247     Zr2267   2.447       .  S
O2247      H2284   0.967       .  S
O2248     Zr2251   2.406   1_556  S
O2248     Zr2759   2.435       .  S
Zr2249     O2274   2.443       .  S
Zr2249     O2268   2.525       .  S
Zr2249     O2276   2.380       .  S
Zr2249     O2264   2.383       .  S
Zr2249     O2747   2.427       .  S
Zr2249     O2256   2.438       .  S
Zr2249     O2257   2.375       .  S
Zr2249     O2258   2.380       .  S
Zr2250     O2269   2.433       .  S
Zr2250     O2262   2.435       .  S
Zr2250     O2263   2.570       .  S
Zr2250     O2737   2.413       .  S
Zr2250     O2256   2.414       .  S
Zr2250     O2257   2.419       .  S
Zr2251     O2253   2.435       .  S
Zr2251     O2275   2.427       .  S
Zr2251     O2277   2.581       .  S
Zr2251     O2255   2.408       .  S
Zr2251     O2750   2.416   1_554  S
Zr2252     O2278   2.438       .  S
Zr2252     O2279   2.439       .  S
Zr2252     O2254   2.437       .  S
Zr2252     O2255   2.443       .  S
Zr2252     O2748   2.420       .  S
O2253      H2290   0.990       .  S
O2254      H2285   0.987       .  S
O2254      H2299   0.990       .  S
O2255     Zr2741   2.424   1_554  S
O2256     Zr2744   2.439       .  S
O2256      H2282   0.965       .  S
O2257     Zr2267   2.373       .  S
O2258     Zr2743   2.422       .  S
O2258     Zr2267   2.354       .  S
O2258      H2283   0.965       .  S
C2261      C2726   1.519       .  S
C2261      O2732   1.271       .  A
O2262      H2298   0.990       .  S
O2263      C2265   1.311       .  A
O2264      C2265   1.273       .  A
O2266     Zr2267   2.435       .  S
O2266      H2295   0.990       .  S
Zr2267     O2270   2.437       .  S
Zr2267     O2271   2.433       .  S
Zr2267     O2272   2.553       .  S
Zr2267     O2740   2.437       .  S
O2268      C2273   1.301       .  A
O2269      H2286   0.990       .  S
O2269      H2301   0.990       .  S
O2270      H2287   0.990       .  S
O2271      H2291   0.990       .  S
O2271      H2300   0.990       .  S
O2272      C2273   1.304       .  A
O2274      H2785   0.990       .  S
O2274      H2297   0.991       .  S
O2275      H2289   0.990       .  S
O2275      H2296   0.988       .  S
O2276      C2772   1.268       .  A
O2277      C2280   1.313       .  A
O2278      H2288   0.989       .  S
O2279      H2292   0.990       .  S
C2280      C2803   1.514       .  S
C2280      O2768   1.269       .  A
H2293      O2766   0.990   1_556  S
N2303      C2307   1.355       .  A
N2303      C2304   1.371       .  A
N2303      C2328   1.403       .  S
C2304      C2305   1.380       .  A
C2305      C2306   1.392       .  A
C2305      H2308   1.081       .  S
C2306      C2307   1.395       .  A
C2306      H2309   1.082       .  S
N2310      C2806   1.356   1_554  A
N2310      C2803   1.369       .  A
N2310      C2331   1.403       .  S
C2311      N2802   1.373       .  A
C2311      C2312   1.381       .  A
C2311      C2772   1.521       .  S
C2312      C2313   1.388       .  A
C2312      H2315   1.082       .  S
C2313      C2314   1.395       .  A
C2313      H2316   1.083       .  S
C2314      N2802   1.363       .  A
C2314      C2672   1.542       .  S
C2317      C2318   1.384       .  A
C2317      C2322   1.396       .  A
C2317      H2333   1.083       .  S
C2318      C2319   1.396       .  A
C2318      H2334   1.083       .  S
C2319      C2329   1.369       .  A
C2319      C2320   1.408       .  A
C2320      C2326   1.409       .  A
C2320      C2321   1.383       .  A
C2321      C2323   1.410       .  A
C2321      C2322   1.406       .  A
C2322      C2330   1.369       .  A
C2323      C2332   1.389       .  A
C2323      C2324   1.400       .  A
C2324      C2325   1.395       .  A
C2324      H2335   1.080       .  S
C2325      C2326   1.400       .  A
C2325      H2336   1.080       .  S
C2326      C2327   1.389       .  A
C2327      C2328   1.397       .  A
C2327      H2337   1.083       .  S
C2328      C2329   1.392       .  A
C2329      H2338   1.085       .  S
C2330      C2331   1.393       .  A
C2330      H2339   1.085       .  S
C2331      C2332   1.397       .  A
C2332      H2340   1.082       .  S
C2341      C2342   1.389       .  A
C2341      C2346   1.397       .  A
C2341      H2357   1.081       .  S
C2342      C2343   1.400       .  A
C2342      H2358   1.082       .  S
C2343      C2353   1.382       .  A
C2343      C2344   1.408       .  A
C2344      C2350   1.411       .  A
C2344      C2345   1.389       .  A
C2345      C2347   1.408       .  A
C2345      C2346   1.411       .  A
C2346      C2354   1.383       .  A
C2347      C2356   1.381       .  A
C2347      C2348   1.399       .  A
C2348      C2349   1.388       .  A
C2348      H2359   1.083       .  S
C2349      C2350   1.397       .  A
C2349      H2360   1.080       .  S
C2350      C2351   1.382       .  A
C2351      C2352   1.389       .  A
C2351      H2361   1.073       .  S
C2352      C2353   1.399       .  A
C2353      H2362   1.084       .  S
C2354      C2355   1.390       .  A
C2354      H2363   1.075       .  S
C2355      C2356   1.398       .  A
C2356      H2364   1.085       .  S
C2365      C2366   1.394       .  A
C2365      C2370   1.401       .  A
C2365      H2381   1.084       .  S
C2366      C2367   1.402       .  A
C2366      H2382   1.084       .  S
C2367      C2377   1.389       .  A
C2367      C2368   1.410       .  A
C2368      C2374   1.411       .  A
C2368      C2369   1.395       .  A
C2369      C2371   1.409       .  A
C2369      C2370   1.410       .  A
C2370      C2378   1.391       .  A
C2371      C2380   1.387       .  A
C2371      C2372   1.400       .  A
C2372      C2373   1.393       .  A
C2372      H2383   1.084       .  S
C2373      C2374   1.401       .  A
C2373      H2384   1.084       .  S
C2374      C2375   1.388       .  A
C2375      C2376   1.398       .  A
C2375      H2385   1.084       .  S
C2376      C2377   1.399       .  A
C2377      H2386   1.084       .  S
C2378      C2379   1.398       .  A
C2378      H2387   1.083       .  S
C2379      C2380   1.396       .  A
C2380      H2388   1.084       .  S
C2389      C2390   1.393       .  A
C2389      C2394   1.400       .  A
C2389      H2405   1.084       .  S
C2390      C2391   1.401       .  A
C2390      H2406   1.081       .  S
C2391      C2401   1.390       .  A
C2391      C2392   1.410       .  A
C2392      C2398   1.410       .  A
C2392      C2393   1.396       .  A
C2393      C2395   1.410       .  A
C2393      C2394   1.410       .  A
C2394      C2402   1.389       .  A
C2395      C2404   1.388       .  A
C2395      C2396   1.400       .  A
C2396      C2397   1.393       .  A
C2396      H2407   1.084       .  S
C2397      C2398   1.401       .  A
C2397      H2408   1.082       .  S
C2398      C2399   1.390       .  A
C2399      C2400   1.397       .  A
C2399      H2409   1.084       .  S
C2400      C2401   1.398       .  A
C2401      H2410   1.084       .  S
C2402      C2403   1.399       .  A
C2402      H2411   1.083       .  S
C2403      C2404   1.398       .  A
C2404      H2412   1.084       .  S
C2413      C2414   1.383       .  A
C2413      C2418   1.397       .  A
C2413      H2429   1.084   1_655  S
C2414      C2415   1.397       .  A
C2414      H2430   1.084   1_655  S
C2415      C2425   1.369       .  A
C2415      C2416   1.407       .  A
C2416      C2422   1.411       .  A
C2416      C2417   1.386       .  A
C2417      C2419   1.410       .  A
C2417      C2418   1.408       .  A
C2418      C2426   1.369       .  A
C2419      C2428   1.393       .  A
C2419      C2420   1.402       .  A
C2420      C2421   1.396       .  A
C2420      H2431   1.081       .  S
C2421      C2422   1.401       .  A
C2421      H2432   1.082       .  S
C2422      C2423   1.392       .  A
C2423      C2424   1.397       .  A
C2423      H2433   1.083       .  S
C2424      C2425   1.395       .  A
C2425      H2434   1.085       .  S
C2426      C2427   1.393       .  A
C2426      H2435   1.085       .  S
C2427      C2428   1.401       .  A
C2428      H2436   1.082       .  S
C2437      C2438   1.383       .  A
C2437      C2442   1.397       .  A
C2437      H2453   1.084       .  S
C2438      C2439   1.397       .  A
C2438      H2454   1.084       .  S
C2439      C2449   1.372       .  A
C2439      C2440   1.410       .  A
C2440      C2446   1.408       .  A
C2440      C2441   1.385       .  A
C2441      C2443   1.413       .  A
C2441      C2442   1.405       .  A
C2442      C2450   1.367       .  A
C2443      C2452   1.393       .  A
C2443      C2444   1.401       .  A
C2444      C2445   1.396       .  A
C2444      H2455   1.081       .  S
C2445      C2446   1.402       .  A
C2445      H2456   1.082       .  S
C2446      C2447   1.390       .  A
C2447      C3432   1.399       .  A
C2447      H2457   1.082       .  S
C2448      C3431   1.395       .  A
C2448      C3433   1.394       .  A
C2449      C3432   1.394       .  A
C2449      H2458   1.085       .  S
C2450      C2451   1.394       .  A
C2450      H2459   1.085       .  S
C2451      C2452   1.398       .  A
C2452      H2460   1.083       .  S
N2461      C2465   1.358       .  A
N2461      C2462   1.371       .  A
N2461      C2943   1.403       .  S
C2462      C2463   1.382       .  A
C2462      C2612   1.517       .  S
C2463      C2464   1.389       .  A
C2463      H2466   1.082       .  S
C2464      C2465   1.393       .  A
C2464      H2467   1.082       .  S
C2465      C2752   1.535       .  S
N2468      C2472   1.356       .  A
N2468      C2469   1.370       .  A
N2468      C2940   1.404   1_545  S
C2469      C2470   1.380       .  A
C2469      C2692   1.522       .  S
C2470      C2471   1.391       .  A
C2470      H2473   1.080       .  S
C2471      C2472   1.394       .  A
C2471      H2474   1.082       .  S
C2472      C2498   1.533       .  S
Zr2475     O2476   2.439       .  S
Zr2475     O2477   2.539       .  S
Zr2475     O2478   2.378       .  S
Zr2475     O2481   2.388       .  S
Zr2475     O2483   2.379       .  S
Zr2475     O2484   2.373       .  S
Zr2475     O2485   2.438       .  S
Zr2475     O2486   2.429       .  S
O2476      H2532   0.990       .  S
O2476      H2540   0.989       .  S
O2477      C2497   1.304       .  A
O2478      C2499   1.270       .  A
O2479     Zr3473   2.579   1_545  S
O2479      C2498   1.314       .  A
O2480     Zr2488   2.586       .  S
O2480      C2499   1.316       .  A
O2481      C2498   1.275       .  A
O2482     Zr2490   2.552       .  S
O2482      C2497   1.303       .  A
O2483     Zr2488   2.417       .  S
O2483     Zr2490   2.365       .  S
O2484     Zr3473   2.429   1_545  S
O2484     Zr2490   2.373       .  S
O2484      H2519   0.967       .  S
O2485     Zr2488   2.415       .  S
O2485     Zr2505   2.440       .  S
O2485      H2522   0.964       .  S
O2486     Zr3473   2.406   1_545  S
O2486     Zr2505   2.435       .  S
Zr2487     O2512   2.445   1_545  S
Zr2487     O3490   2.536   1_545  S
Zr2487     O3498   2.407   1_545  S
Zr2487     O2502   2.364       .  S
Zr2487     O2493   2.430       .  S
Zr2487     O2494   2.443       .  S
Zr2487     O2495   2.379       .  S
Zr2487     O3480   2.379   1_545  S
Zr2488     O2507   2.439       .  S
Zr2488     O2500   2.434       .  S
Zr2488     O2501   2.585       .  S
Zr2488     O2494   2.411       .  S
Zr2488     O2495   2.416       .  S
Zr2489     O2491   2.435       .  S
Zr2489     O2513   2.435       .  S
Zr2489     O3463   2.587       .  S
Zr2489     O2515   2.600       .  S
Zr2489     O3468   2.429       .  S
Zr2489     O3470   2.412       .  S
Zr2489     O3477   2.415       .  S
Zr2489     O2496   2.417       .  S
Zr2490     O2516   2.436       .  S
Zr2490     O2517   2.436       .  S
Zr2490     O2492   2.439       .  S
Zr2490     O2493   2.447       .  S
Zr2490     O2494   2.437       .  S
O2491      H2528   0.990       .  S
O2492      H2523   0.989       .  S
O2492      H2537   0.990       .  S
O2493     Zr3473   2.420   1_545  S
O2494      H2520   0.966       .  S
O2495     Zr2505   2.373       .  S
O2496     Zr3471   2.372       .  S
O2496     Zr3489   2.357       .  S
O2496      H2521   0.965       .  S
C2497      C2556   1.592       .  S
C2499      C2716   1.522       .  S
O2500      H2536   0.990       .  S
O2501      C2503   1.314       .  A
O2502      C2503   1.270       .  A
C2503      C2552   1.534       .  S
O2504     Zr2505   2.434       .  S
O2504      H2533   0.990       .  S
Zr2505     O2508   2.436       .  S
Zr2505     O3493   2.425   1_545  S
Zr2505     O3494   2.535   1_545  S
Zr2505     O3480   2.363   1_545  S
O2506     Zr3471   2.542       .  S
O2506      C2511   1.306       .  A
O2507      H2524   0.989       .  S
O2507      H2539   0.989       .  S
O2508      H2525   0.990       .  S
O2509     Zr3489   2.436       .  S
O2509      H2529   0.989       .  S
O2509      H2538   0.990       .  S
O2510     Zr3489   2.540       .  S
O2510      C2511   1.301       .  A
C2511      C2639   1.580       .  S
O2512      H2531   0.991       .  S
O2512      H2535   0.990       .  S
O2513      H2527   0.990       .  S
O2513      H3518   0.990       .  S
O2514     Zr3471   2.376       .  S
O2514      C2518   1.270       .  A
O2515      C2518   1.318       .  A
O2516      H2526   0.991       .  S
O2517      H2530   0.990       .  S
C2518      C2796   1.521       .  S
H2534      O3497   0.990       .  S
N2541      C2545   1.367       .  A
N2541      C2542   1.359       .  A
N2541      C2919   1.411       .  S
C2542      C2543   1.395       .  A
C2542      C2757   1.530       .  S
C2543      C2544   1.385       .  A
C2543      H2546   1.083       .  S
C2544      C2545   1.380       .  A
C2544      H2547   1.082       .  S
C2545      C2593   1.505       .  S
N2548      C2552   1.359       .  A
N2548      C2549   1.370       .  A
N2548      C2916   1.408       .  S
C2549      C3534   1.379       .  A
C2549      C2673   1.512       .  S
C2550      C3533   1.379       .  A
C2550      C2551   1.386       .  A
C2550      H2553   1.083       .  S
C2551      C3536   1.395       .  A
C2551      H2554   1.082       .  S
C2552      C3535   1.395       .  A
N2555      C2559   1.393       .  A
N2555      C2556   1.397       .  A
N2555      C2892   1.417       .  S
C2556      C2557   1.387       .  A
C2557      C2558   1.400       .  A
C2557      H2560   1.081       .  S
C2558      C2559   1.388       .  A
C2558      H2561   1.082       .  S
C2559      C2751   1.585       .  S
N2562      C2566   1.391       .  A
N2562      C2563   1.392       .  A
C2563      C2564   1.388       .  A
C2563      C2605   1.589       .  S
C2564      C2565   1.402       .  A
C2564      H2567   1.081       .  S
C2565      C2566   1.387       .  A
C2565      H2568   1.082       .  S
C2566      C2685   1.585       .  S
Zr2569     O2570   2.440       .  S
Zr2569     O2571   2.547       .  S
Zr2569     O2572   2.365       .  S
Zr2569     O2575   2.377       .  S
Zr2569     O2577   2.367   1_655  S
Zr2569     O2578   2.375       .  S
Zr2569     O2579   2.436       .  S
Zr2569     O2580   2.433       .  S
O2570      H2626   0.991       .  S
O2570      H2634   0.990       .  S
O2571      C2591   1.306       .  A
O2572      C2593   1.270       .  A
O2573     Zr2583   2.586       .  S
O2573      C2592   1.314       .  A
O2574     Zr2582   2.570       .  S
O2574      C2593   1.312   1_455  A
O2575      C2592   1.273       .  A
O2576     Zr2584   2.538       .  S
O2577     Zr2582   2.404       .  S
O2578     Zr2583   2.414       .  S
O2578      H2613   0.964       .  S
O2579     Zr2582   2.403   1_655  S
O2579     Zr2599   2.438       .  S
O2579      H2616   0.966       .  S
O2580     Zr2583   2.404       .  S
O2580     Zr2599   2.446       .  S
Zr2581     O2606   2.440       .  S
Zr2581     O2600   2.535       .  S
Zr2581     O2608   2.370       .  S
Zr2581     O2596   2.413       .  S
Zr2581     O2587   2.433       .  S
Zr2581     O2588   2.433       .  S
Zr2581     O2589   2.377       .  S
Zr2581     O2590   2.381       .  S
Zr2582     O2601   2.432       .  S
Zr2583     O2585   2.434       .  S
Zr2584     O2610   2.437       .  S
Zr2584     O2611   2.439       .  S
Zr2584     O2586   2.442       .  S
Zr2584     O2587   2.444       .  S
Zr2584     O2588   2.433       .  S
O2585      H2622   0.989       .  S
O2586      H2617   0.988       .  S
O2586      H2631   0.990       .  S
O2588      H2614   0.971       .  S
O2590      H2615   0.967       .  S
C2591      C2643   1.598       .  S
C2592      C2799   1.534       .  S
O2594      H2630   0.990       .  S
O2595      C2597   1.310       .  A
O2596      C2597   1.278       .  A
C2597      C2719   1.533       .  S
O2598     Zr2599   2.437       .  S
O2598      H2627   0.990       .  S
Zr2599     O2602   2.438       .  S
Zr2599     O2603   2.427       .  S
Zr2599     O2604   2.546       .  S
O2600      C2605   1.304       .  A
O2601      H2618   0.990       .  S
O2601      H2633   0.990       .  S
O2602      H2619   0.990   1_655  S
O2603      H2623   0.990       .  S
O2603      H2632   0.988       .  S
O2606      H2625   0.990       .  S
O2606      H2629   0.991       .  S
O2607      H2621   0.990       .  S
O2607      H2628   0.990       .  S
O2608      C2612   1.269       .  A
O2609      C2612   1.317       .  A
O2610      H2620   0.989       .  S
O2611      H2624   0.990       .  S
N2635      C2639   1.394       .  A
N2635      C2636   1.392       .  A
N2635      C2868   1.423       .  S
C2636      C2637   1.386       .  A
C2636      C2765   1.578       .  S
C2637      C2638   1.397       .  A
C2637      H2640   1.082       .  S
C2638      C2639   1.385       .  A
C2638      H2641   1.081       .  S
N2642      C2646   1.395       .  A
N2642      C2643   1.396       .  A
C2643      C2644   1.388       .  A
C2644      C2645   1.404       .  A
C2644      H2647   1.082       .  S
C2645      C2646   1.387       .  A
C2645      H2648   1.081       .  S
C2646      C2671   1.596       .  S
Zr2649     O2650   2.444       .  S
Zr2649     O3635   2.560   1_545  S
Zr2649     O2652   2.377       .  S
Zr2649     O3639   2.390   1_545  S
Zr2649     O2657   2.369   1_655  S
Zr2649     O3642   2.375   1_545  S
Zr2649     O2659   2.442       .  S
O2650      H2706   0.990       .  S
O2650      H2714   0.991       .  S
O2651     Zr3633   2.549       .  S
O2651      C2671   1.306       .  A
O2652      C2673   1.266       .  A
O2653     Zr2663   2.593       .  S
O2653      C2672   1.316       .  A
O2654     Zr2662   2.572       .  S
O2654      C2673   1.309   1_455  A
O2655     Zr3633   2.369       .  S
O2656     Zr3648   2.545       .  S
O2657     Zr2662   2.404       .  S
O2658     Zr3633   2.372       .  S
O2658      H2693   0.966       .  S
O2659     Zr2662   2.402   1_655  S
O2659      H2696   0.969       .  S
O2660     Zr3647   2.402       .  S
O2660     Zr2679   2.440       .  S
Zr2661     O2686   2.443       .  S
Zr2661     O2680   2.549       .  S
Zr2661     O2688   2.403       .  S
Zr2661     O2676   2.391       .  S
Zr2661     O2667   2.437       .  S
Zr2661     O2669   2.375       .  S
Zr2661     O2670   2.383       .  S
Zr2662     O2681   2.430       .  S
Zr2663     O2665   2.434       .  S
Zr2663     O3644   2.407       .  S
Zr2664     O3674   2.441       .  S
Zr2664     O2691   2.437       .  S
Zr2664     O2666   2.441       .  S
Zr2664     O3640   2.557       .  S
Zr2664     O2668   2.444   1_565  S
O2665      H2702   0.990       .  S
O2666      H2697   0.990       .  S
O2666      H2711   0.989       .  S
O2668      H2694   0.965       .  S
O2670      H2695   0.965       .  S
O2674      H2710   0.990       .  S
O2675      C2677   1.311       .  A
O2678     Zr2679   2.439       .  S
O2678      H2707   0.990       .  S
Zr2679     O2682   2.436       .  S
Zr2679     O2683   2.427       .  S
Zr2679     O2684   2.552       .  S
O2680      C2685   1.307       .  A
O2681      H2698   0.990       .  S
O2681      H2713   0.990       .  S
O2682      H2699   0.990       .  S
O2683      H2703   0.990       .  S
O2683      H2712   0.990       .  S
O2686      H2705   0.991       .  S
O2687      H2701   0.990       .  S
O2687      H2708   0.990       .  S
O2688      C2692   1.267       .  A
O2689      C2692   1.306       .  A
O2690     Zr3648   2.437       .  S
O2690      H2700   0.990       .  S
O2691      H2704   0.990       .  S
N2715      C2719   1.356       .  A
N2715      C2716   1.375       .  A
N2715      C2844   1.410       .  S
C2716      C2717   1.386       .  A
C2717      C2718   1.396       .  A
C2717      H2720   1.082       .  S
C2718      C2719   1.388       .  A
C2718      H2721   1.082       .  S
N2722      C2847   1.417       .  S
C2723      C2724   1.389       .  A
C2724      C2725   1.392       .  A
C2724      H2727   1.082       .  S
C2725      C2726   1.385       .  A
C2725      H2728   1.083       .  S
Zr2729     O2730   2.440       .  S
Zr2729     O2731   2.540       .  S
Zr2729     O2732   2.379       .  S
Zr2729     O2735   2.373       .  S
Zr2729     O2737   2.370       .  S
Zr2729     O2738   2.370       .  S
Zr2729     O2740   2.434       .  S
O2730      H2786   0.991       .  S
O2730      H2794   0.989       .  S
O2731      C2751   1.304       .  A
O2733     Zr2743   2.588       .  S
O2733      C2752   1.316       .  A
O2734     Zr2742   2.583       .  S
O2734      C2753   1.316       .  A
O2735      C2752   1.272       .  A
O2736     Zr2744   2.530       .  S
O2736      C2751   1.298       .  A
O2737     Zr2744   2.363       .  S
O2738     Zr2743   2.425       .  S
O2738     Zr2744   2.381       .  S
O2738      H2773   0.965       .  S
O2739     Zr2742   2.409       .  S
O2739     Zr2759   2.443       .  S
O2739      H2776   0.965       .  S
O2740     Zr2743   2.409       .  S
Zr2741     O2766   2.444   1_556  S
Zr2741     O2760   2.536       .  S
Zr2741     O2768   2.379   1_556  S
Zr2741     O2756   2.372       .  S
Zr2741     O2748   2.428   1_556  S
Zr2741     O2749   2.378       .  S
Zr2741     O2750   2.371       .  S
Zr2742     O2761   2.429       .  S
Zr2742     O2754   2.435       .  S
Zr2742     O2755   2.578       .  S
Zr2742     O2748   2.404   1_556  S
Zr2742     O2749   2.423       .  S
Zr2743     O2745   2.437       .  S
Zr2743     O2767   2.426       .  S
Zr2743     O2769   2.592       .  S
Zr2743     O2747   2.408       .  S
Zr2744     O2770   2.441       .  S
Zr2744     O2771   2.438       .  S
Zr2744     O2746   2.439       .  S
Zr2744     O2747   2.441       .  S
O2745      H2782   0.990       .  S
O2746      H2777   0.990       .  S
O2746      H2791   0.989       .  S
O2748      H2774   0.970       .  S
O2749     Zr2759   2.377       .  S
O2750     Zr2759   2.356       .  S
O2750      H2775   0.964       .  S
O2754      H2790   0.990       .  S
O2755      C2757   1.313       .  A
O2756      C2757   1.274       .  A
O2758     Zr2759   2.440       .  S
O2758      H2787   0.991       .  S
Zr2759     O2762   2.437       .  S
Zr2759     O2763   2.429       .  S
Zr2759     O2764   2.540       .  S
O2760      C2765   1.305       .  A
O2761      H2778   0.989       .  S
O2761      H2793   0.990       .  S
O2762      H2779   0.990       .  S
O2763      H2783   0.988       .  S
O2763      H2792   0.990       .  S
O2764      C2765   1.302       .  A
O2766      H2789   0.990       .  S
O2767      H2781   0.989       .  S
O2767      H2788   0.988       .  S
O2769      C2772   1.314       .  A
O2770      H2780   0.990       .  S
O2771      H2784   0.991       .  S
N2795      C2799   1.359       .  A
N2795      C2796   1.371       .  A
N2795      C2820   1.403       .  S
C2796      C2797   1.382       .  A
C2797      C2798   1.388       .  A
C2797      H2800   1.082       .  S
C2798      C2799   1.394       .  A
C2798      H2801   1.083       .  S
N2802      C2823   1.409       .  S
C2803      C2804   1.380   1_554  A
C2804      C2805   1.389       .  A
C2804      H2807   1.082       .  S
C2805      C2806   1.395       .  A
C2805      H2808   1.082       .  S
C2809      C2810   1.386       .  A
C2809      C2814   1.397       .  A
C2809      H2825   1.083       .  S
C2810      C2811   1.398       .  A
C2810      H2826   1.084       .  S
C2811      C2821   1.371       .  A
C2811      C2812   1.407       .  A
C2812      C2818   1.412       .  A
C2812      C2813   1.386       .  A
C2813      C2815   1.409       .  A
C2813      C2814   1.408       .  A
C2814      C2822   1.375       .  A
C2815      C2824   1.387       .  A
C2815      C2816   1.401       .  A
C2816      C2817   1.393       .  A
C2816      H2827   1.081       .  S
C2817      C2818   1.399       .  A
C2817      H2828   1.082       .  S
C2818      C2819   1.388       .  A
C2819      C2820   1.394       .  A
C2819      H2829   1.083       .  S
C2820      C2821   1.395       .  A
C2821      H2830   1.085       .  S
C2822      C2823   1.397       .  A
C2822      H2831   1.085       .  S
C2823      C2824   1.396       .  A
C2824      H2832   1.081       .  S
C2833      C2834   1.388       .  A
C2833      C2838   1.398       .  A
C2833      H2849   1.080       .  S
C2834      C2835   1.399       .  A
C2834      H2850   1.084       .  S
C2835      C2845   1.379       .  A
C2835      C2836   1.408       .  A
C2836      C2842   1.413       .  A
C2836      C2837   1.390       .  A
C2837      C2839   1.406       .  A
C2837      C2838   1.412       .  A
C2838      C2846   1.385       .  A
C2839      C2848   1.381       .  A
C2839      C2840   1.400       .  A
C2840      C2841   1.388       .  A
C2840      H2851   1.082       .  S
C2841      C2842   1.397       .  A
C2841      H2852   1.082       .  S
C2842      C2843   1.385       .  A
C2843      C2844   1.390       .  A
C2843      H2853   1.077       .  S
C2844      C2845   1.397       .  A
C2845      H2854   1.085       .  S
C2846      C2847   1.393       .  A
C2846      H2855   1.073       .  S
C2847      C2848   1.400       .  A
C2848      H2856   1.084       .  S
C2857      C2858   1.393       .  A
C2857      C2862   1.400       .  A
C2857      H2873   1.082       .  S
C2858      C2859   1.400       .  A
C2858      H2874   1.083       .  S
C2859      C2869   1.391       .  A
C2859      C2860   1.410       .  A
C2860      C2866   1.410       .  A
C2860      C2861   1.399       .  A
C2861      C2863   1.410       .  A
C2861      C2862   1.410       .  A
C2862      C2870   1.391       .  A
C2863      C2872   1.392       .  A
C2863      C2864   1.401       .  A
C2864      C2865   1.396       .  A
C2864      H2875   1.084       .  S
C2865      C2866   1.402       .  A
C2865      H2876   1.083       .  S
C2866      C2867   1.394       .  A
C2867      C2868   1.403       .  A
C2867      H2877   1.084       .  S
C2868      C2869   1.398       .  A
C2869      H2878   1.084       .  S
C2870      C2871   1.397       .  A
C2870      H2879   1.083       .  S
C2871      C2872   1.399       .  A
C2872      H2880   1.084       .  S
C2881      C2882   1.396       .  A
C2881      C2886   1.402       .  A
C2881      H2897   1.084       .  S
C2882      C2883   1.403       .  A
C2882      H2898   1.084       .  S
C2883      C2893   1.394       .  A
C2883      C2884   1.411       .  A
C2884      C2890   1.410       .  A
C2884      C2885   1.397       .  A
C2885      C2887   1.411       .  A
C2885      C2886   1.410       .  A
C2886      C2894   1.392       .  A
C2887      C2896   1.389       .  A
C2887      C2888   1.401       .  A
C2888      C2889   1.392       .  A
C2888      H2899   1.083       .  S
C2889      C2890   1.399       .  A
C2889      H2900   1.084       .  S
C2890      C2891   1.386       .  A
C2891      C2892   1.394       .  A
C2891      H2901   1.084       .  S
C2892      C2893   1.402       .  A
C2893      H2902   1.083       .  S
C2894      C2895   1.401       .  A
C2894      H2903   1.084       .  S
C2895      C2896   1.398       .  A
C2896      H2904   1.084       .  S
C2905      C2906   1.389       .  A
C2905      C2910   1.400       .  A
C2905      H2921   1.084   1_655  S
C2906      C2907   1.399       .  A
C2906      H2922   1.084   1_655  S
C2907      C2917   1.377       .  A
C2907      C2908   1.408       .  A
C2908      C2914   1.409       .  A
C2908      C2909   1.387       .  A
C2909      C2911   1.411       .  A
C2909      C2910   1.407       .  A
C2910      C2918   1.376       .  A
C2911      C2920   1.389       .  A
C2911      C2912   1.400       .  A
C2912      C2913   1.392       .  A
C2912      H2923   1.079       .  S
C2913      C2914   1.399       .  A
C2913      H2924   1.082       .  S
C2914      C2915   1.385       .  A
C2915      C2916   1.395       .  A
C2915      H2925   1.081       .  S
C2916      C2917   1.398       .  A
C2917      H2926   1.085       .  S
C2918      C2919   1.399       .  A
C2918      H2927   1.085       .  S
C2919      C2920   1.395       .  A
C2920      H2928   1.081       .  S
C2929      C2930   1.384       .  A
C2929      C2934   1.397       .  A
C2929      H2945   1.084       .  S
C2930      C2931   1.398       .  A
C2930      H2946   1.084       .  S
C2931      C2941   1.371       .  A
C2931      C2932   1.408       .  A
C2932      C2938   1.409       .  A
C2932      C2933   1.383       .  A
C2933      C2935   1.411       .  A
C2933      C2934   1.408       .  A
C2934      C2942   1.369       .  A
C2935      C2944   1.388       .  A
C2935      C2936   1.401       .  A
C2936      C2937   1.395       .  A
C2936      H2947   1.082       .  S
C2937      C2938   1.400       .  A
C2937      H2948   1.081       .  S
C2938      C2939   1.387       .  A
C2939      C3924   1.396       .  A
C2939      H2949   1.082       .  S
C2940      C3923   1.396       .  A
C2940      C3925   1.394       .  A
C2941      C3924   1.394       .  A
C2941      H2950   1.085       .  S
C2942      C2943   1.393       .  A
C2942      H2951   1.085       .  S
C2943      C2944   1.397       .  A
C2944      H2952   1.083       .  S
N2953      C2957   1.361       .  A
N2953      C2954   1.371       .  A
N2953      C3435   1.407       .  S
C2954      C2955   1.378       .  A
C2954      C3104   1.527       .  S
C2955      C2956   1.393       .  A
C2955      H2958   1.082       .  S
C2956      C2957   1.397       .  A
C2956      H2959   1.082       .  S
C2957      C3244   1.540       .  S
N2960      C2964   1.358       .  A
N2960      C2961   1.371       .  A
N2960      C3432   1.409       .  S
C2961      C2962   1.379       .  A
C2961      C3184   1.521       .  S
C2962      C2963   1.388       .  A
C2962      H2965   1.078       .  S
C2963      C2964   1.392       .  A
C2963      H2966   1.082       .  S
C2964      C2990   1.528       .  S
Zr2967     O2968   2.436       .  S
Zr2967     O2969   2.524       .  S
Zr2967     O2970   2.389       .  S
Zr2967     O2973   2.390       .  S
Zr2967     O2975   2.374       .  S
Zr2967     O2976   2.376       .  S
Zr2967     O2977   2.435       .  S
Zr2967     O2978   2.431       .  S
O2968      H3024   0.990       .  S
O2968      H3032   0.989       .  S
O2969      C2989   1.301       .  A
O2970      C2991   1.275       .  A
O2971      C2990   1.311       .  A
O2972     Zr2980   2.567       .  S
O2972      C2991   1.312       .  A
O2973      C2990   1.276       .  A
O2974     Zr2982   2.549       .  S
O2974      C2989   1.302       .  A
O2975     Zr2980   2.413       .  S
O2975     Zr2982   2.359       .  S
O2976     Zr2982   2.367       .  S
O2976      H3011   0.966       .  S
O2977     Zr2980   2.412       .  S
O2977     Zr2997   2.441       .  S
O2977      H3014   0.967       .  S
O2978     Zr2997   2.439       .  S
Zr2979     O3004   2.443       .  S
Zr2979     O2994   2.372       .  S
Zr2979     O2985   2.432       .  S
Zr2979     O2986   2.443       .  S
Zr2979     O2987   2.370       .  S
Zr2980     O2999   2.433       .  S
Zr2980     O2992   2.433       .  S
Zr2980     O2993   2.575       .  S
Zr2980     O2986   2.414       .  S
Zr2980     O2987   2.411       .  S
Zr2981     O2983   2.434       .  S
Zr2981     O3005   2.433       .  S
Zr2981     O3007   2.595       .  S
Zr2981     O2988   2.416       .  S
Zr2982     O3008   2.437       .  S
Zr2982     O3009   2.435       .  S
Zr2982     O2984   2.439       .  S
Zr2982     O2985   2.447       .  S
Zr2982     O2986   2.440       .  S
O2983      H3020   0.990       .  S
O2984      H3015   0.990       .  S
O2984      H3029   0.989       .  S
O2986      H3012   0.966       .  S
O2987     Zr2997   2.368       .  S
O2988      H3013   0.965       .  S
C2989      C3048   1.586       .  S
C2991      C3208   1.515       .  S
O2992      H3028   0.990       .  S
O2993      C2995   1.312       .  A
O2994      C2995   1.272       .  A
C2995      C3044   1.531       .  S
O2996     Zr2997   2.440       .  S
O2996      H3025   0.991       .  S
Zr2997     O3000   2.437       .  S
O2998      C3003   1.305       .  A
O2999      H3016   0.990       .  S
O2999      H3031   0.990       .  S
O3000      H3017   0.990       .  S
O3001      H3021   0.989       .  S
O3001      H3030   0.989       .  S
O3002      C3003   1.303       .  A
C3003      C3131   1.586       .  S
O3004      H3023   0.991       .  S
O3004      H3027   0.990       .  S
O3005      H3019   0.990       .  S
O3006      C3010   1.268       .  A
O3007      C3010   1.317       .  A
O3008      H3018   0.989       .  S
O3009      H3022   0.990       .  S
C3010      C3288   1.519       .  S
N3033      C3037   1.369       .  A
N3033      C3034   1.353       .  A
N3033      C3411   1.410       .  S
C3034      C3035   1.394       .  A
C3034      C3249   1.522       .  S
C3035      C3036   1.388       .  A
C3035      H3038   1.083       .  S
C3036      C3037   1.380       .  A
C3036      H3039   1.081       .  S
C3037      C3085   1.510       .  S
N3040      C3044   1.359       .  A
N3040      C3041   1.371       .  A
N3040      C3408   1.410       .  S
C3041      C3165   1.509       .  S
C3042      C3043   1.386       .  A
C3042      H3045   1.083   1_545  S
C3043      H3046   1.082   1_545  S
N3047      C3051   1.393       .  A
N3047      C3048   1.393       .  A
N3047      C3384   1.417       .  S
C3048      C3049   1.387       .  A
C3049      C3050   1.399       .  A
C3049      H3052   1.081       .  S
C3050      C3051   1.386       .  A
C3050      H3053   1.082       .  S
C3051      C3243   1.582       .  S
N3054      C3058   1.391       .  A
N3054      C3055   1.389       .  A
C3055      C3056   1.385       .  A
C3055      C3097   1.580       .  S
C3056      C3057   1.399       .  A
C3056      H3059   1.081       .  S
C3057      C3058   1.388       .  A
C3057      H3060   1.082       .  S
C3058      C3177   1.581       .  S
Zr3061     O3062   2.441       .  S
Zr3061     O3063   2.549       .  S
Zr3061     O3064   2.376       .  S
Zr3061     O3067   2.385       .  S
Zr3061     O3069   2.369   1_655  S
Zr3061     O3070   2.377       .  S
Zr3061     O3071   2.440       .  S
Zr3061     O3072   2.438       .  S
O3062      H3118   0.990       .  S
O3062      H3126   0.991       .  S
O3063      C3083   1.306       .  A
O3064      C3085   1.268       .  A
O3065     Zr3075   2.587       .  S
O3065      C3084   1.315       .  A
O3066     Zr3074   2.572   1_655  S
O3066      C3085   1.310       .  A
O3067      C3084   1.274       .  A
O3068     Zr3076   2.528       .  S
O3069     Zr3074   2.399       .  S
O3070     Zr3075   2.422       .  S
O3070      H3105   0.964       .  S
O3071     Zr3074   2.404   1_655  S
O3071     Zr3091   2.443       .  S
O3071      H3108   0.969       .  S
O3072     Zr3075   2.409       .  S
O3072     Zr3091   2.441       .  S
Zr3073     O3098   2.445       .  S
Zr3073     O3092   2.533       .  S
Zr3073     O3100   2.399       .  S
Zr3073     O3088   2.407       .  S
Zr3073     O3079   2.439       .  S
Zr3073     O3080   2.450       .  S
Zr3073     O3081   2.376       .  S
Zr3073     O3082   2.387       .  S
Zr3074     O3093   2.434       .  S
Zr3075     O3077   2.437       .  S
Zr3076     O3102   2.438       .  S
Zr3076     O3103   2.437       .  S
Zr3076     O3078   2.440       .  S
Zr3076     O3079   2.444       .  S
Zr3076     O3080   2.430       .  S
O3077      H3114   0.990       .  S
O3078      H3109   0.989       .  S
O3078      H3123   0.989       .  S
O3080      H3106   0.967       .  S
O3082      H3107   0.966       .  S
C3083      C3135   1.593       .  S
C3084      C3291   1.535       .  S
O3086      H3122   0.990       .  S
O3087      C3089   1.307       .  A
O3088      C3089   1.276       .  A
C3089      C3211   1.526       .  S
O3090     Zr3091   2.439       .  S
O3090      H3119   0.991       .  S
Zr3091     O3094   2.435       .  S
Zr3091     O3095   2.434       .  S
Zr3091     O3096   2.552       .  S
O3092      C3097   1.301       .  A
O3093      H3110   0.990       .  S
O3093      H3125   0.990       .  S
O3094      H3111   0.990       .  S
O3095      H3115   0.990       .  S
O3095      H3124   0.990       .  S
O3098      H3117   0.991       .  S
O3098      H3121   0.990       .  S
O3099      H3113   0.990       .  S
O3099      H3120   0.990       .  S
O3100      C3104   1.268       .  A
O3101      C3104   1.305       .  A
O3102      H3112   0.990       .  S
O3103      H3116   0.990       .  S
N3127      C3131   1.392       .  A
N3127      C3128   1.393       .  A
N3127      C3360   1.413       .  S
C3128      C3129   1.386       .  A
C3128      C3257   1.591       .  S
C3129      C3130   1.402       .  A
C3129      H3132   1.081       .  S
C3130      C3131   1.388       .  A
C3130      H3133   1.082       .  S
N3134      C3138   1.395       .  A
N3134      C3135   1.395       .  A
C3135      C3136   1.387       .  A
C3136      C3137   1.403       .  A
C3136      H3139   1.082       .  S
C3137      C3138   1.387       .  A
C3137      H3140   1.081       .  S
C3138      C3163   1.595       .  S
Zr3141     O3142   2.443       .  S
Zr3141     O3144   2.368       .  S
Zr3141     O3149   2.372   1_655  S
Zr3141     O3151   2.435       .  S
Zr3141     O3644   2.433       .  S
O3142      H3198   0.990       .  S
O3142      H3206   0.991       .  S
O3143      C3163   1.304       .  A
O3144      C3165   1.269       .  A
O3145     Zr3155   2.583   1_565  S
O3145      C3164   1.315       .  A
O3146     Zr3154   2.576   1_655  S
O3146      C3165   1.313       .  A
O3147      C3656   1.273       .  A
O3149     Zr3154   2.404       .  S
O3150     Zr3647   2.428   1_565  S
O3150      H3185   0.967       .  S
O3151     Zr3154   2.404   1_655  S
O3151     Zr3663   2.439       .  S
O3151      H3188   0.968       .  S
O3152     Zr3633   2.432   1_554  S
O3152     Zr3171   2.434       .  S
Zr3153     O3178   2.443       .  S
Zr3153     O3172   2.540       .  S
Zr3153     O3180   2.402       .  S
Zr3153     O3168   2.399       .  S
Zr3153     O3159   2.438       .  S
Zr3153     O3652   2.439   1_554  S
Zr3153     O3161   2.377       .  S
Zr3153     O3162   2.385       .  S
Zr3154     O3173   2.433       .  S
Zr3155     O3157   2.433       .  S
Zr3155     O3642   2.431   1_544  S
Zr3156     O3183   2.436       .  S
Zr3156     O3158   2.438       .  S
Zr3156     O3160   2.439       .  S
Zr3156     O3651   2.352       .  S
O3157      H3194   0.991       .  S
O3158      H3189   0.990       .  S
O3158      H3203   0.989       .  S
O3159     Zr3648   2.447   1_554  S
O3160     Zr3645   2.442       .  S
O3160      H3186   0.960       .  S
O3162      H3187   0.966       .  S
C3164      C3790   1.535   1_554  S
C3164      O3639   1.275   1_554  A
O3166      H3202   0.990       .  S
O3167      C3169   1.309       .  A
O3168      C3661   1.276   1_554  A
C3169      C3707   1.531       .  S
C3169      O3660   1.275       .  A
O3170     Zr3171   2.436   1_556  S
O3170      H3199   0.990       .  S
Zr3171     O3174   2.436   1_554  S
Zr3171     O3175   2.421       .  S
Zr3171     O3176   2.550       .  S
Zr3171     O3643   2.441   1_554  S
O3172      C3177   1.304       .  A
O3173      H3190   0.990       .  S
O3173      H3205   0.990       .  S
O3174      H3191   0.990       .  S
O3175      H3195   0.989       .  S
O3175      H3204   0.989       .  S
O3178      H3197   0.991       .  S
O3178      H3693   0.991       .  S
O3179      H3193   0.990       .  S
O3179      H3200   0.990       .  S
O3180      C3184   1.266       .  A
O3181      C3184   1.303       .  A
O3182      H3192   0.990       .  S
O3183      H3196   0.989       .  S
H3201      O3670   0.991       .  S
N3207      C3211   1.355       .  A
N3207      C3208   1.371       .  A
N3207      C3336   1.411       .  S
C3208      C3209   1.387       .  A
C3209      C3210   1.394       .  A
C3209      H3212   1.082       .  S
C3210      C3211   1.387       .  A
C3210      H3213   1.082       .  S
N3214      C3710   1.378       .  A
N3214      C3707   1.358       .  A
N3214      C3339   1.414       .  S
C3215      N3706   1.360       .  A
C3215      C3216   1.388   1_556  A
C3215      C3661   1.535       .  S
C3216      C3217   1.391       .  A
C3216      H3219   1.082       .  S
C3217      C3218   1.385   1_554  A
C3217      H3220   1.082       .  S
C3218      N3706   1.379       .  A
C3218      C3737   1.523       .  S
Zr3221     O3222   2.438   1_554  S
Zr3221     O3223   2.535       .  S
Zr3221     O3224   2.389   1_554  S
Zr3221     O3227   2.392       .  S
Zr3221     O3229   2.373       .  S
Zr3221     O3230   2.373       .  S
Zr3221     O3723   2.436   1_554  S
Zr3221     O3232   2.427   1_554  S
O3222      H3278   0.990   1_556  S
O3222      H3286   0.989       .  S
O3223      C3243   1.304       .  A
O3224      C3737   1.274       .  A
O3225     Zr3235   2.589       .  S
O3225      C3244   1.316       .  A
O3226     Zr3234   2.584       .  S
O3226      C3245   1.316       .  A
O3227      C3244   1.277       .  A
O3228     Zr3236   2.530       .  S
O3228      C3243   1.298       .  A
O3229     Zr3726   2.411   1_554  S
O3229     Zr3236   2.364       .  S
O3230     Zr3235   2.426       .  S
O3230     Zr3236   2.374       .  S
O3230      H3265   0.969       .  S
O3231     Zr3713   2.440       .  S
O3231     Zr3234   2.407       .  S
O3231     Zr3251   2.453       .  S
O3231      H3268   0.964       .  S
O3232     Zr3235   2.406   1_556  S
O3232     Zr3743   2.439       .  S
Zr3233     O3258   2.439       .  S
Zr3233     O3252   2.527       .  S
Zr3233     O3260   2.370       .  S
Zr3233     O3248   2.361       .  S
Zr3233     O3731   2.424       .  S
Zr3233     O3240   2.431       .  S
Zr3233     O3241   2.383       .  S
Zr3233     O3242   2.370       .  S
Zr3234     O3253   2.433       .  S
Zr3234     O3246   2.434       .  S
Zr3234     O3247   2.569       .  S
Zr3234     O3721   2.404       .  S
Zr3234     O3240   2.401       .  S
Zr3234     O3241   2.425       .  S
Zr3235     O3237   2.435       .  S
Zr3235     O3259   2.434       .  S
Zr3235     O3261   2.591       .  S
Zr3235     O3239   2.412       .  S
Zr3235     O3734   2.412   1_554  S
Zr3236     O3262   2.435       .  S
Zr3236     O3263   2.436       .  S
Zr3236     O3238   2.442       .  S
Zr3236     O3239   2.448       .  S
Zr3236     O3732   2.427       .  S
O3237      H3274   0.990       .  S
O3238      H3269   0.990       .  S
O3238      H3283   0.990       .  S
O3239     Zr3725   2.424   1_554  S
O3240     Zr3728   2.426       .  S
O3240      H3266   0.963       .  S
O3241     Zr3251   2.378       .  S
O3242     Zr3727   2.408       .  S
O3242     Zr3251   2.347       .  S
O3242      H3267   0.965       .  S
C3245      C3710   1.524       .  S
C3245      O3716   1.273       .  A
O3246      H3282   0.990       .  S
O3247      C3249   1.312       .  A
O3248      C3249   1.271       .  A
O3250     Zr3251   2.435       .  S
O3250      H3279   0.990       .  S
Zr3251     O3254   2.440       .  S
Zr3251     O3255   2.433       .  S
Zr3251     O3256   2.572       .  S
Zr3251     O3724   2.435       .  S
O3252      C3257   1.302       .  A
O3253      H3270   0.990       .  S
O3253      H3285   0.990       .  S
O3254      H3271   0.990       .  S
O3255      H3275   0.990       .  S
O3255      H3284   0.990       .  S
O3256      C3257   1.307       .  A
O3258      H3769   0.991       .  S
O3258      H3281   0.990       .  S
O3259      H3273   0.990       .  S
O3259      H3280   0.990       .  S
O3260      C3756   1.270       .  A
O3261      C3264   1.317       .  A
O3262      H3272   0.989       .  S
O3263      H3276   0.990       .  S
C3264      C3787   1.516       .  S
C3264      O3752   1.271   1_554  A
H3277      O3750   0.990   1_556  S
N3287      C3291   1.358       .  A
N3287      C3288   1.372       .  A
N3287      C3312   1.404       .  S
C3288      C3289   1.380       .  A
C3289      C3290   1.388       .  A
C3289      H3292   1.082       .  S
C3290      C3291   1.394       .  A
C3290      H3293   1.082       .  S
N3294      C3790   1.358   1_554  A
N3294      C3787   1.367       .  A
N3294      C3315   1.403       .  S
C3295      N3786   1.369       .  A
C3295      C3296   1.381       .  A
C3295      C3756   1.521       .  S
C3296      C3297   1.390       .  A
C3296      H3299   1.082       .  S
C3297      C3298   1.396       .  A
C3297      H3300   1.082       .  S
C3298      N3786   1.360       .  A
C3298      C3656   1.541       .  S
C3301      C3302   1.384       .  A
C3301      C3306   1.396       .  A
C3301      H3317   1.083       .  S
C3302      C3303   1.396       .  A
C3302      H3318   1.083       .  S
C3303      C3313   1.368       .  A
C3303      C3304   1.407       .  A
C3304      C3310   1.411       .  A
C3304      C3305   1.384       .  A
C3305      C3307   1.411       .  A
C3305      C3306   1.407       .  A
C3306      C3314   1.368       .  A
C3307      C3316   1.388       .  A
C3307      C3308   1.400       .  A
C3308      C3309   1.394       .  A
C3308      H3319   1.080       .  S
C3309      C3310   1.401       .  A
C3309      H3320   1.080       .  S
C3310      C3311   1.390       .  A
C3311      C3312   1.396       .  A
C3311      H3321   1.082       .  S
C3312      C3313   1.393       .  A
C3313      H3322   1.085       .  S
C3314      C3315   1.394       .  A
C3314      H3323   1.085       .  S
C3315      C3316   1.395       .  A
C3316      H3324   1.082       .  S
C3325      C3326   1.388       .  A
C3325      C3330   1.396       .  A
C3325      H3341   1.080       .  S
C3326      C3327   1.400       .  A
C3326      H3342   1.083       .  S
C3327      C3337   1.380       .  A
C3327      C3328   1.407       .  A
C3328      C3334   1.415       .  A
C3328      C3329   1.391       .  A
C3329      C3331   1.406       .  A
C3329      C3330   1.414       .  A
C3330      C3338   1.385       .  A
C3331      C3340   1.380       .  A
C3331      C3332   1.400       .  A
C3332      C3333   1.387       .  A
C3332      H3343   1.081       .  S
C3333      C3334   1.396       .  A
C3333      H3344   1.082       .  S
C3334      C3335   1.385       .  A
C3335      C3336   1.389       .  A
C3335      H3345   1.077       .  S
C3336      C3337   1.399       .  A
C3337      H3346   1.085       .  S
C3338      C3339   1.389       .  A
C3338      H3347   1.075       .  S
C3339      C3340   1.400       .  A
C3340      H3348   1.084       .  S
C3349      C3350   1.395       .  A
C3349      C3354   1.402       .  A
C3349      H3365   1.083       .  S
C3350      C3351   1.402       .  A
C3350      H3366   1.084       .  S
C3351      C3361   1.391       .  A
C3351      C3352   1.411       .  A
C3352      C3358   1.409       .  A
C3352      C3353   1.395       .  A
C3353      C3355   1.410       .  A
C3353      C3354   1.409       .  A
C3354      C3362   1.390       .  A
C3355      C3364   1.387       .  A
C3355      C3356   1.399       .  A
C3356      C3357   1.392       .  A
C3356      H3367   1.083       .  S
C3357      C3358   1.399       .  A
C3357      H3368   1.084       .  S
C3358      C3359   1.384       .  A
C3359      C3360   1.395       .  A
C3359      H3369   1.084       .  S
C3360      C3361   1.399       .  A
C3361      H3370   1.084       .  S
C3362      C3363   1.399       .  A
C3362      H3371   1.083       .  S
C3363      C3364   1.396       .  A
C3364      H3372   1.084       .  S
C3373      C3374   1.393       .  A
C3373      C3378   1.401       .  A
C3373      H3389   1.084       .  S
C3374      C3375   1.401       .  A
C3374      H3390   1.083       .  S
C3375      C3385   1.389       .  A
C3375      C3376   1.410       .  A
C3376      C3382   1.410       .  A
C3376      C3377   1.395       .  A
C3377      C3379   1.411       .  A
C3377      C3378   1.410       .  A
C3378      C3386   1.387       .  A
C3379      C3388   1.389       .  A
C3379      C3380   1.401       .  A
C3380      C3381   1.393       .  A
C3380      H3391   1.084       .  S
C3381      C3382   1.401       .  A
C3381      H3392   1.083       .  S
C3382      C3383   1.389       .  A
C3383      C3384   1.397       .  A
C3383      H3393   1.084       .  S
C3384      C3385   1.398       .  A
C3385      H3394   1.083       .  S
C3386      C3387   1.397       .  A
C3386      H3395   1.084       .  S
C3387      C3388   1.398       .  A
C3388      H3396   1.084       .  S
C3397      C3398   1.385       .  A
C3397      C3402   1.398       .  A
C3397      H3413   1.084   1_655  S
C3398      C3399   1.398       .  A
C3398      H3414   1.084   1_655  S
C3399      C3409   1.373       .  A
C3399      C3400   1.407       .  A
C3400      C3406   1.411       .  A
C3400      C3401   1.387       .  A
C3401      C3403   1.409       .  A
C3401      C3402   1.408       .  A
C3402      C3410   1.372       .  A
C3403      C3412   1.390       .  A
C3403      C3404   1.401       .  A
C3404      C3405   1.395       .  A
C3404      H3415   1.080       .  S
C3405      C3406   1.401       .  A
C3405      H3416   1.081       .  S
C3406      C3407   1.391       .  A
C3407      C3408   1.398       .  A
C3407      H3417   1.082       .  S
C3408      C3409   1.396       .  A
C3409      H3418   1.085       .  S
C3410      C3411   1.395       .  A
C3410      H3419   1.085       .  S
C3411      C3412   1.399       .  A
C3412      H3420   1.082       .  S
C3421      C3422   1.384       .  A
C3421      C3426   1.397       .  A
C3421      H3437   1.083       .  S
C3422      C3423   1.398       .  A
C3422      H3438   1.084       .  S
C3423      C3433   1.371       .  A
C3423      C3424   1.409       .  A
C3424      C3430   1.409       .  A
C3424      C3425   1.385       .  A
C3425      C3427   1.411       .  A
C3425      C3426   1.405       .  A
C3426      C3434   1.369       .  A
C3427      C3436   1.391       .  A
C3427      C3428   1.399       .  A
C3428      C3429   1.395       .  A
C3428      H3439   1.080       .  S
C3429      C3430   1.399       .  A
C3429      H3440   1.080       .  S
C3430      C3431   1.387       .  A
C3431      H3441   1.083       .  S
C3433      H3442   1.085       .  S
C3434      C3435   1.396       .  A
C3434      H3443   1.085       .  S
C3435      C3436   1.395       .  A
C3436      H3444   1.082       .  S
N3445      C3449   1.357       .  A
N3445      C3446   1.369       .  A
N3445      C3927   1.407       .  S
C3446      C3447   1.380       .  A
C3446      C3596   1.506       .  S
C3447      C3448   1.386       .  A
C3447      H3450   1.081       .  S
C3448      C3449   1.395       .  A
C3448      H3451   1.082       .  S
C3449      C3736   1.529       .  S
N3452      C3456   1.358       .  A
N3452      C3453   1.372       .  A
N3452      C3924   1.405       .  S
C3453      C3454   1.380       .  A
C3453      C3676   1.523       .  S
C3454      C3455   1.388       .  A
C3454      H3457   1.080       .  S
C3455      C3456   1.394       .  A
C3455      H3458   1.083       .  S
C3456      C3482   1.534       .  S
Zr3459     O3460   2.439       .  S
Zr3459     O3461   2.527       .  S
Zr3459     O3462   2.375       .  S
Zr3459     O3465   2.371       .  S
Zr3459     O3467   2.370       .  S
Zr3459     O3468   2.372       .  S
Zr3459     O3469   2.433       .  S
Zr3459     O3470   2.424       .  S
O3460      H3516   0.990       .  S
O3460      H3524   0.989       .  S
O3461      C3481   1.301       .  A
O3462      C3483   1.271       .  A
O3463      C3482   1.315       .  A
O3464     Zr3472   2.577       .  S
O3464      C3483   1.313       .  A
O3465      C3482   1.272       .  A
O3466     Zr3474   2.551       .  S
O3466      C3481   1.303       .  A
O3467     Zr3472   2.414       .  S
O3467     Zr3474   2.361       .  S
O3468     Zr3474   2.369       .  S
O3468      H3503   0.969       .  S
O3469     Zr3472   2.420       .  S
O3469     Zr3489   2.443       .  S
O3469      H3506   0.965       .  S
O3470     Zr3489   2.432       .  S
Zr3471     O3496   2.442       .  S
Zr3471     O3486   2.375       .  S
Zr3471     O3477   2.434       .  S
Zr3471     O3478   2.435       .  S
Zr3471     O3479   2.366       .  S
Zr3472     O3491   2.434       .  S
Zr3472     O3484   2.435       .  S
Zr3472     O3485   2.594       .  S
Zr3472     O3478   2.405       .  S
Zr3472     O3479   2.414       .  S
Zr3473     O3475   2.435       .  S
Zr3473     O3497   2.433       .  S
Zr3473     O3499   2.577       .  S
Zr3473     O3480   2.432       .  S
Zr3474     O3500   2.444       .  S
Zr3474     O3501   2.441       .  S
Zr3474     O3476   2.438       .  S
Zr3474     O3477   2.454       .  S
Zr3474     O3478   2.439       .  S
O3475      H3512   0.990       .  S
O3476      H3507   0.990       .  S
O3476      H3521   0.990       .  S
O3478      H3504   0.966       .  S
O3479     Zr3489   2.378       .  S
O3480      H3505   0.965       .  S
C3481      C3540   1.590       .  S
C3483      C3700   1.517       .  S
O3484      H3520   0.990       .  S
O3485      C3487   1.316       .  A
O3486      C3487   1.273       .  A
C3487      C3536   1.539       .  S
O3488     Zr3489   2.435       .  S
O3488      H3517   0.989       .  S
Zr3489     O3492   2.434       .  S
O3490      C3495   1.304       .  A
O3491      H3508   0.990       .  S
O3491      H3523   0.989       .  S
O3492      H3509   0.990       .  S
O3493      H3513   0.989       .  S
O3493      H3522   0.989       .  S
O3494      C3495   1.299       .  A
C3495      C3623   1.577       .  S
O3496      H3515   0.990       .  S
O3496      H3519   0.990       .  S
O3497      H3511   0.990       .  S
O3498      C3502   1.266       .  A
O3499      C3502   1.307       .  A
O3500      H3510   0.989       .  S
O3501      H3514   0.990       .  S
C3502      C3780   1.529       .  S
N3525      C3529   1.367       .  A
N3525      C3526   1.357       .  A
N3525      C3903   1.409       .  S
C3526      C3527   1.395       .  A
C3526      C3741   1.530       .  S
C3527      C3528   1.386       .  A
C3527      H3530   1.083       .  S
C3528      C3529   1.380       .  A
C3528      H3531   1.081       .  S
C3529      C3577   1.507       .  S
N3532      C3536   1.362       .  A
N3532      C3533   1.374       .  A
N3532      C3900   1.411       .  S
C3533      C3657   1.512       .  S
C3534      C3535   1.387       .  A
C3534      H3537   1.080   1_545  S
C3535      H3538   1.083   1_545  S
N3539      C3543   1.396       .  A
N3539      C3540   1.395       .  A
N3539      C3876   1.417       .  S
C3540      C3541   1.387       .  A
C3541      C3542   1.400       .  A
C3541      H3544   1.081       .  S
C3542      C3543   1.387       .  A
C3542      H3545   1.082       .  S
C3543      C3735   1.590       .  S
N3546      C3550   1.390       .  A
N3546      C3547   1.390       .  A
C3547      C3548   1.387       .  A
C3547      C3589   1.583       .  S
C3548      C3549   1.402       .  A
C3548      H3551   1.081       .  S
C3549      C3550   1.387       .  A
C3549      H3552   1.082       .  S
C3550      C3669   1.584       .  S
Zr3553     O3554   2.439       .  S
Zr3553     O3555   2.545       .  S
Zr3553     O3556   2.376       .  S
Zr3553     O3559   2.378       .  S
Zr3553     O3561   2.368   1_655  S
Zr3553     O3562   2.379       .  S
Zr3553     O3563   2.442       .  S
Zr3553     O3564   2.433       .  S
O3554      H3610   0.990       .  S
O3554      H3618   0.990       .  S
O3555      C3575   1.306       .  A
O3556      C3577   1.268       .  A
O3557     Zr3567   2.586       .  S
O3557      C3576   1.315       .  A
O3558     Zr3566   2.562       .  S
O3558      C3577   1.308   1_455  A
O3559      C3576   1.273       .  A
O3560     Zr3568   2.527       .  S
O3561     Zr3566   2.393       .  S
O3562     Zr3567   2.417       .  S
O3562      H3597   0.966       .  S
O3563     Zr3566   2.412   1_655  S
O3563     Zr3583   2.447       .  S
O3563      H3600   0.967       .  S
O3564     Zr3567   2.406       .  S
O3564     Zr3583   2.444       .  S
Zr3565     O3590   2.448       .  S
Zr3565     O3584   2.539       .  S
Zr3565     O3592   2.346       .  S
Zr3565     O3580   2.389       .  S
Zr3565     O3571   2.429       .  S
Zr3565     O3572   2.428       .  S
Zr3565     O3573   2.368       .  S
Zr3565     O3574   2.382       .  S
Zr3566     O3585   2.433       .  S
Zr3567     O3569   2.435       .  S
Zr3568     O3594   2.440       .  S
Zr3568     O3595   2.436       .  S
Zr3568     O3570   2.438       .  S
Zr3568     O3571   2.441       .  S
Zr3568     O3572   2.436       .  S
O3569      H3606   0.990       .  S
O3570      H3601   0.990       .  S
O3570      H3615   0.989       .  S
O3572      H3598   0.966       .  S
O3574      H3599   0.965       .  S
C3575      C3627   1.591       .  S
C3576      C3783   1.536       .  S
O3578      H3614   0.990       .  S
O3579      C3581   1.314       .  A
O3580      C3581   1.273       .  A
C3581      C3703   1.531       .  S
O3582     Zr3583   2.435       .  S
O3582      H3611   0.989       .  S
Zr3583     O3586   2.438       .  S
Zr3583     O3587   2.424       .  S
Zr3583     O3588   2.545       .  S
O3584      C3589   1.305       .  A
O3585      H3602   0.989       .  S
O3585      H3617   0.990       .  S
O3586      H3603   0.990   1_655  S
O3587      H3607   0.990       .  S
O3587      H3616   0.989       .  S
O3590      H3609   0.991       .  S
O3590      H3613   0.990       .  S
O3591      H3605   0.990       .  S
O3591      H3612   0.990       .  S
O3592      C3596   1.264       .  A
O3593      C3596   1.316       .  A
O3594      H3604   0.990       .  S
O3595      H3608   0.990       .  S
N3619      C3623   1.389       .  A
N3619      C3620   1.391       .  A
N3619      C3852   1.416       .  S
C3620      C3621   1.387       .  A
C3620      C3749   1.584       .  S
C3621      C3622   1.400       .  A
C3621      H3624   1.081       .  S
C3622      C3623   1.386       .  A
C3622      H3625   1.082       .  S
N3626      C3630   1.395       .  A
N3626      C3627   1.394       .  A
C3627      C3628   1.388       .  A
C3628      C3629   1.402       .  A
C3628      H3631   1.082       .  S
C3629      C3630   1.385       .  A
C3629      H3632   1.080       .  S
C3630      C3655   1.591       .  S
Zr3633     O3634   2.441       .  S
Zr3633     O3636   2.358       .  S
Zr3633     O3641   2.366   1_655  S
Zr3633     O3643   2.433       .  S
O3634      H3690   0.990       .  S
O3634      H3698   0.991       .  S
O3635      C3655   1.309       .  A
O3636      C3657   1.267       .  A
O3637     Zr3647   2.604   1_565  S
O3637      C3656   1.319       .  A
O3638     Zr3646   2.585       .  S
O3638      C3657   1.316   1_455  A
O3641     Zr3646   2.407       .  S
O3642      H3677   0.966       .  S
O3643     Zr3646   2.405   1_655  S
O3643      H3680   0.967       .  S
O3644     Zr3663   2.449       .  S
Zr3645     O3670   2.444       .  S
Zr3645     O3664   2.553       .  S
Zr3645     O3672   2.386       .  S
Zr3645     O3660   2.403       .  S
Zr3645     O3653   2.372       .  S
Zr3645     O3654   2.380       .  S
Zr3645     O3651   2.334       .  S
Zr3646     O3665   2.433       .  S
Zr3647     O3649   2.435       .  S
Zr3648     O3675   2.436       .  S
Zr3648     O3650   2.440       .  S
Zr3648     O3652   2.431       .  S
O3649      H3686   0.990       .  S
O3650      H3681   0.987       .  S
O3650      H3695   0.990       .  S
O3652      H3678   0.966       .  S
O3654      H3679   0.963       .  S
O3658      H3694   0.990       .  S
O3659      C3661   1.312       .  A
O3662     Zr3663   2.442       .  S
O3662      H3691   0.990       .  S
Zr3663     O3666   2.437       .  S
Zr3663     O3667   2.431       .  S
Zr3663     O3668   2.558       .  S
O3664      C3669   1.307       .  A
O3665      H3682   0.990       .  S
O3665      H3697   0.990       .  S
O3666      H3683   0.990       .  S
O3667      H3687   0.989       .  S
O3667      H3696   0.989       .  S
O3670      H3689   0.990       .  S
O3671      H3685   0.989       .  S
O3671      H3692   0.990       .  S
O3672      C3676   1.267       .  A
O3673      C3676   1.311       .  A
O3674      H3684   0.989       .  S
O3675      H3688   0.990       .  S
N3699      C3703   1.353       .  A
N3699      C3700   1.371       .  A
N3699      C3828   1.405       .  S
C3700      C3701   1.387       .  A
C3701      C3702   1.395       .  A
C3701      H3704   1.083       .  S
C3702      C3703   1.389       .  A
C3702      H3705   1.082       .  S
N3706      C3831   1.414       .  S
C3707      C3708   1.387       .  A
C3708      C3709   1.393       .  A
C3708      H3711   1.082       .  S
C3709      C3710   1.386       .  A
C3709      H3712   1.082       .  S
Zr3713     O3714   2.438       .  S
Zr3713     O3715   2.543       .  S
Zr3713     O3716   2.388       .  S
Zr3713     O3719   2.365       .  S
Zr3713     O3721   2.365       .  S
Zr3713     O3722   2.379       .  S
Zr3713     O3724   2.431       .  S
O3714      H3770   0.990       .  S
O3714      H3778   0.988       .  S
O3715      C3735   1.305       .  A
O3717     Zr3727   2.582       .  S
O3717      C3736   1.314       .  A
O3718     Zr3726   2.582       .  S
O3718      C3737   1.316       .  A
O3719      C3736   1.272       .  A
O3720     Zr3728   2.537       .  S
O3720      C3735   1.299       .  A
O3721     Zr3728   2.362       .  S
O3722     Zr3727   2.435       .  S
O3722     Zr3728   2.380       .  S
O3722      H3757   0.971       .  S
O3723     Zr3726   2.410       .  S
O3723     Zr3743   2.441       .  S
O3723      H3760   0.966       .  S
O3724     Zr3727   2.406       .  S
Zr3725     O3750   2.440   1_556  S
Zr3725     O3744   2.535       .  S
Zr3725     O3752   2.374       .  S
Zr3725     O3740   2.366       .  S
Zr3725     O3732   2.430   1_556  S
Zr3725     O3733   2.374       .  S
Zr3725     O3734   2.369       .  S
Zr3726     O3745   2.432       .  S
Zr3726     O3738   2.441       .  S
Zr3726     O3739   2.587       .  S
Zr3726     O3732   2.407   1_556  S
Zr3726     O3733   2.417       .  S
Zr3727     O3729   2.434       .  S
Zr3727     O3751   2.425       .  S
Zr3727     O3753   2.600       .  S
Zr3727     O3731   2.405       .  S
Zr3728     O3754   2.435       .  S
Zr3728     O3755   2.436       .  S
Zr3728     O3730   2.441       .  S
Zr3728     O3731   2.453       .  S
O3729      H3766   0.990       .  S
O3730      H3761   0.990       .  S
O3730      H3775   0.989       .  S
O3732      H3758   0.967       .  S
O3733     Zr3743   2.371       .  S
O3734     Zr3743   2.351       .  S
O3734      H3759   0.966       .  S
O3738      H3774   0.989       .  S
O3739      C3741   1.315       .  A
O3740      C3741   1.272       .  A
O3742     Zr3743   2.437       .  S
O3742      H3771   0.990       .  S
Zr3743     O3746   2.437       .  S
Zr3743     O3747   2.418       .  S
Zr3743     O3748   2.555       .  S
O3744      C3749   1.305       .  A
O3745      H3762   0.989       .  S
O3745      H3777   0.990       .  S
O3746      H3763   0.990       .  S
O3747      H3767   0.988       .  S
O3747      H3776   0.989       .  S
O3748      C3749   1.304       .  A
O3750      H3773   0.990       .  S
O3751      H3765   0.989       .  S
O3751      H3772   0.991       .  S
O3753      C3756   1.319       .  A
O3754      H3764   0.988       .  S
O3755      H3768   0.990       .  S
N3779      C3783   1.358       .  A
N3779      C3780   1.375       .  A
N3779      C3804   1.404       .  S
C3780      C3781   1.380       .  A
C3781      C3782   1.389       .  A
C3781      H3784   1.079       .  S
C3782      C3783   1.392       .  A
C3782      H3785   1.082       .  S
N3786      C3807   1.401       .  S
C3787      C3788   1.381   1_554  A
C3788      C3789   1.390       .  A
C3788      H3791   1.082       .  S
C3789      C3790   1.395       .  A
C3789      H3792   1.082       .  S
C3793      C3794   1.385       .  A
C3793      C3798   1.397       .  A
C3793      H3809   1.082       .  S
C3794      C3795   1.396       .  A
C3794      H3810   1.083       .  S
C3795      C3805   1.373       .  A
C3795      C3796   1.411       .  A
C3796      C3802   1.408       .  A
C3796      C3797   1.383       .  A
C3797      C3799   1.413       .  A
C3797      C3798   1.405       .  A
C3798      C3806   1.369       .  A
C3799      C3808   1.387       .  A
C3799      C3800   1.399       .  A
C3800      C3801   1.392       .  A
C3800      H3811   1.082       .  S
C3801      C3802   1.400       .  A
C3801      H3812   1.082       .  S
C3802      C3803   1.383       .  A
C3803      C3804   1.396       .  A
C3803      H3813   1.082       .  S
C3804      C3805   1.393       .  A
C3805      H3814   1.085       .  S
C3806      C3807   1.395       .  A
C3806      H3815   1.085       .  S
C3807      C3808   1.393       .  A
C3808      H3816   1.083       .  S
C3817      C3818   1.388       .  A
C3817      C3822   1.397       .  A
C3817      H3833   1.081       .  S
C3818      C3819   1.399       .  A
C3818      H3834   1.084       .  S
C3819      C3829   1.379       .  A
C3819      C3820   1.409       .  A
C3820      C3826   1.412       .  A
C3820      C3821   1.388       .  A
C3821      C3823   1.407       .  A
C3821      C3822   1.411       .  A
C3822      C3830   1.383       .  A
C3823      C3832   1.380       .  A
C3823      C3824   1.400       .  A
C3824      C3825   1.388       .  A
C3824      H3835   1.083       .  S
C3825      C3826   1.397       .  A
C3825      H3836   1.082       .  S
C3826      C3827   1.381       .  A
C3827      C3828   1.389       .  A
C3827      H3837   1.077       .  S
C3828      C3829   1.396       .  A
C3829      H3838   1.085       .  S
C3830      C3831   1.390       .  A
C3830      H3839   1.075       .  S
C3831      C3832   1.401       .  A
C3832      H3840   1.084       .  S
C3841      C3842   1.395       .  A
C3841      C3846   1.402       .  A
C3841      H3857   1.084       .  S
C3842      C3843   1.402       .  A
C3842      H3858   1.083       .  S
C3843      C3853   1.392       .  A
C3843      C3844   1.410       .  A
C3844      C3850   1.409       .  A
C3844      C3845   1.395       .  A
C3845      C3847   1.410       .  A
C3845      C3846   1.408       .  A
C3846      C3854   1.390       .  A
C3847      C3856   1.388       .  A
C3847      C3848   1.399       .  A
C3848      C3849   1.393       .  A
C3848      H3859   1.083       .  S
C3849      C3850   1.401       .  A
C3849      H3860   1.084       .  S
C3850      C3851   1.387       .  A
C3851      C3852   1.397       .  A
C3851      H3861   1.083       .  S
C3852      C3853   1.400       .  A
C3853      H3862   1.084       .  S
C3854      C3855   1.400       .  A
C3854      H3863   1.083       .  S
C3855      C3856   1.395       .  A
C3856      H3864   1.084       .  S
C3865      C3866   1.393       .  A
C3865      C3870   1.401       .  A
C3865      H3881   1.084       .  S
C3866      C3867   1.400       .  A
C3866      H3882   1.083       .  S
C3867      C3877   1.388       .  A
C3867      C3868   1.409       .  A
C3868      C3874   1.410       .  A
C3868      C3869   1.395       .  A
C3869      C3871   1.411       .  A
C3869      C3870   1.411       .  A
C3870      C3878   1.389       .  A
C3871      C3880   1.389       .  A
C3871      C3872   1.402       .  A
C3872      C3873   1.394       .  A
C3872      H3883   1.084       .  S
C3873      C3874   1.401       .  A
C3873      H3884   1.084       .  S
C3874      C3875   1.390       .  A
C3875      C3876   1.398       .  A
C3875      H3885   1.083       .  S
C3876      C3877   1.397       .  A
C3877      H3886   1.083       .  S
C3878      C3879   1.397       .  A
C3878      H3887   1.084       .  S
C3879      C3880   1.398       .  A
C3880      H3888   1.084       .  S
C3889      C3890   1.386       .  A
C3889      C3894   1.399       .  A
C3889      H3905   1.084   1_655  S
C3890      C3891   1.399       .  A
C3890      H3906   1.084   1_655  S
C3891      C3901   1.371       .  A
C3891      C3892   1.406       .  A
C3892      C3898   1.412       .  A
C3892      C3893   1.387       .  A
C3893      C3895   1.409       .  A
C3893      C3894   1.409       .  A
C3894      C3902   1.375       .  A
C3895      C3904   1.388       .  A
C3895      C3896   1.400       .  A
C3896      C3897   1.394       .  A
C3896      H3907   1.079       .  S
C3897      C3898   1.400       .  A
C3897      H3908   1.082       .  S
C3898      C3899   1.392       .  A
C3899      C3900   1.397       .  A
C3899      H3909   1.082       .  S
C3900      C3901   1.398       .  A
C3901      H3910   1.085       .  S
C3902      C3903   1.397       .  A
C3902      H3911   1.085       .  S
C3903      C3904   1.396       .  A
C3904      H3912   1.081       .  S
C3913      C3914   1.384       .  A
C3913      C3918   1.396       .  A
C3913      H3929   1.083       .  S
C3914      C3915   1.397       .  A
C3914      H3930   1.084       .  S
C3915      C3925   1.371       .  A
C3915      C3916   1.409       .  A
C3916      C3922   1.409       .  A
C3916      C3917   1.384       .  A
C3917      C3919   1.411       .  A
C3917      C3918   1.405       .  A
C3918      C3926   1.367       .  A
C3919      C3928   1.391       .  A
C3919      C3920   1.400       .  A
C3920      C3921   1.396       .  A
C3920      H3931   1.081       .  S
C3921      C3922   1.400       .  A
C3921      H3932   1.081       .  S
C3922      C3923   1.388       .  A
C3923      H3933   1.083       .  S
C3925      H3934   1.085       .  S
C3926      C3927   1.394       .  A
C3926      H3935   1.085       .  S
C3927      C3928   1.399       .  A
C3928      H3936   1.082       .  S
